<?xml version="1.0" encoding="UTF-8"?>

<!-- generated on 2026-07-07T09:54:58.744648+05:30 by Eclipse SUMO netgenerate 1.26.0
<netgenerateConfiguration xmlns:xsi="http://www.w3.org/2001/XMLSchema-instance" xsi:noNamespaceSchemaLocation="http://sumo.dlr.de/xsd/netgenerateConfiguration.xsd">

    <grid_network>
        <grid value="true"/>
        <grid.x-number value="28"/>
        <grid.y-number value="7"/>
        <grid.x-length value="200.0"/>
        <grid.y-length value="200.0"/>
    </grid_network>

    <output>
        <output-file value="C:\Users\sahan\Desktop\VS Code\RL\EV_BaseLine2 - MultiAgent\scenario\grid_7x28\grid_7x28.net.xml"/>
    </output>

    <building_defaults>
        <default.lanenumber value="2"/>
        <default-junction-type value="traffic_light"/>
    </building_defaults>

    <tls_building>
        <tls.green.time value="31"/>
        <tls.yellow.time value="4"/>
        <tls.allred.time value="2"/>
    </tls_building>

    <junctions>
        <no-turnarounds.tls value="true"/>
    </junctions>

</netgenerateConfiguration>
-->

<net version="1.20" junctionCornerDetail="5" limitTurnSpeed="5.50" xmlns:xsi="http://www.w3.org/2001/XMLSchema-instance" xsi:noNamespaceSchemaLocation="http://sumo.dlr.de/xsd/net_file.xsd">

    <location netOffset="0.00,0.00" convBoundary="0.00,0.00,5400.00,1200.00" origBoundary="0.00,0.00,5400.00,1200.00" projParameter="!"/>

    <edge id=":AA0_0" function="internal">
        <lane id=":AA0_0_0" index="0" speed="8.96" length="18.06" shape="-4.80,6.40 -4.10,1.50 -2.00,-2.00 1.50,-4.10 6.40,-4.80"/>
        <lane id=":AA0_0_1" index="1" speed="7.66" length="12.90" shape="-1.60,6.40 -1.10,2.90 0.40,0.40 2.90,-1.10 6.40,-1.60"/>
    </edge>
    <edge id=":AA0_2" function="internal">
        <lane id=":AA0_2_0" index="0" speed="3.90" length="2.58" shape="6.40,4.80 5.70,4.90 5.20,5.20 4.90,5.70 4.80,6.40"/>
        <lane id=":AA0_2_1" index="1" speed="6.08" length="7.74" shape="6.40,1.60 4.30,1.90 2.80,2.80 1.90,4.30 1.60,6.40"/>
    </edge>
    <edge id=":AA1_0" function="internal">
        <lane id=":AA1_0_0" index="0" speed="13.89" length="20.80" shape="-4.80,210.40 -4.80,189.60"/>
        <lane id=":AA1_0_1" index="1" speed="13.89" length="20.80" shape="-1.60,210.40 -1.60,189.60"/>
    </edge>
    <edge id=":AA1_2" function="internal">
        <lane id=":AA1_2_0" index="0" speed="9.26" length="5.01" shape="-1.60,210.40 -0.89,205.44"/>
    </edge>
    <edge id=":AA1_9" function="internal">
        <lane id=":AA1_9_0" index="0" speed="9.26" length="14.34" shape="-0.89,205.44 -0.85,205.15 1.40,201.40 5.15,199.15 10.40,198.40"/>
    </edge>
    <edge id=":AA1_3" function="internal">
        <lane id=":AA1_3_0" index="0" speed="6.51" length="9.03" shape="10.40,204.80 7.95,205.15 6.20,206.20 5.15,207.95 4.80,210.40"/>
        <lane id=":AA1_3_1" index="1" speed="8.00" length="14.19" shape="10.40,201.60 6.55,202.15 3.80,203.80 2.15,206.55 1.60,210.40"/>
    </edge>
    <edge id=":AA1_5" function="internal">
        <lane id=":AA1_5_0" index="0" speed="9.26" length="19.35" shape="10.40,201.60 5.15,200.85 1.40,198.60 -0.85,194.85 -1.60,189.60"/>
    </edge>
    <edge id=":AA1_6" function="internal">
        <lane id=":AA1_6_0" index="0" speed="6.51" length="9.03" shape="4.80,189.60 5.15,192.05 6.20,193.80 7.95,194.85 10.40,195.20"/>
    </edge>
    <edge id=":AA1_7" function="internal">
        <lane id=":AA1_7_0" index="0" speed="13.89" length="20.80" shape="4.80,189.60 4.80,210.40"/>
        <lane id=":AA1_7_1" index="1" speed="13.89" length="20.80" shape="1.60,189.60 1.60,210.40"/>
    </edge>
    <edge id=":AA2_0" function="internal">
        <lane id=":AA2_0_0" index="0" speed="13.89" length="20.80" shape="-4.80,410.40 -4.80,389.60"/>
        <lane id=":AA2_0_1" index="1" speed="13.89" length="20.80" shape="-1.60,410.40 -1.60,389.60"/>
    </edge>
    <edge id=":AA2_2" function="internal">
        <lane id=":AA2_2_0" index="0" speed="9.26" length="5.01" shape="-1.60,410.40 -0.89,405.44"/>
    </edge>
    <edge id=":AA2_9" function="internal">
        <lane id=":AA2_9_0" index="0" speed="9.26" length="14.34" shape="-0.89,405.44 -0.85,405.15 1.40,401.40 5.15,399.15 10.40,398.40"/>
    </edge>
    <edge id=":AA2_3" function="internal">
        <lane id=":AA2_3_0" index="0" speed="6.51" length="9.03" shape="10.40,404.80 7.95,405.15 6.20,406.20 5.15,407.95 4.80,410.40"/>
        <lane id=":AA2_3_1" index="1" speed="8.00" length="14.19" shape="10.40,401.60 6.55,402.15 3.80,403.80 2.15,406.55 1.60,410.40"/>
    </edge>
    <edge id=":AA2_5" function="internal">
        <lane id=":AA2_5_0" index="0" speed="9.26" length="19.35" shape="10.40,401.60 5.15,400.85 1.40,398.60 -0.85,394.85 -1.60,389.60"/>
    </edge>
    <edge id=":AA2_6" function="internal">
        <lane id=":AA2_6_0" index="0" speed="6.51" length="9.03" shape="4.80,389.60 5.15,392.05 6.20,393.80 7.95,394.85 10.40,395.20"/>
    </edge>
    <edge id=":AA2_7" function="internal">
        <lane id=":AA2_7_0" index="0" speed="13.89" length="20.80" shape="4.80,389.60 4.80,410.40"/>
        <lane id=":AA2_7_1" index="1" speed="13.89" length="20.80" shape="1.60,389.60 1.60,410.40"/>
    </edge>
    <edge id=":AA3_0" function="internal">
        <lane id=":AA3_0_0" index="0" speed="13.89" length="20.80" shape="-4.80,610.40 -4.80,589.60"/>
        <lane id=":AA3_0_1" index="1" speed="13.89" length="20.80" shape="-1.60,610.40 -1.60,589.60"/>
    </edge>
    <edge id=":AA3_2" function="internal">
        <lane id=":AA3_2_0" index="0" speed="9.26" length="5.01" shape="-1.60,610.40 -0.89,605.44"/>
    </edge>
    <edge id=":AA3_9" function="internal">
        <lane id=":AA3_9_0" index="0" speed="9.26" length="14.34" shape="-0.89,605.44 -0.85,605.15 1.40,601.40 5.15,599.15 10.40,598.40"/>
    </edge>
    <edge id=":AA3_3" function="internal">
        <lane id=":AA3_3_0" index="0" speed="6.51" length="9.03" shape="10.40,604.80 7.95,605.15 6.20,606.20 5.15,607.95 4.80,610.40"/>
        <lane id=":AA3_3_1" index="1" speed="8.00" length="14.19" shape="10.40,601.60 6.55,602.15 3.80,603.80 2.15,606.55 1.60,610.40"/>
    </edge>
    <edge id=":AA3_5" function="internal">
        <lane id=":AA3_5_0" index="0" speed="9.26" length="19.35" shape="10.40,601.60 5.15,600.85 1.40,598.60 -0.85,594.85 -1.60,589.60"/>
    </edge>
    <edge id=":AA3_6" function="internal">
        <lane id=":AA3_6_0" index="0" speed="6.51" length="9.03" shape="4.80,589.60 5.15,592.05 6.20,593.80 7.95,594.85 10.40,595.20"/>
    </edge>
    <edge id=":AA3_7" function="internal">
        <lane id=":AA3_7_0" index="0" speed="13.89" length="20.80" shape="4.80,589.60 4.80,610.40"/>
        <lane id=":AA3_7_1" index="1" speed="13.89" length="20.80" shape="1.60,589.60 1.60,610.40"/>
    </edge>
    <edge id=":AA4_0" function="internal">
        <lane id=":AA4_0_0" index="0" speed="13.89" length="20.80" shape="-4.80,810.40 -4.80,789.60"/>
        <lane id=":AA4_0_1" index="1" speed="13.89" length="20.80" shape="-1.60,810.40 -1.60,789.60"/>
    </edge>
    <edge id=":AA4_2" function="internal">
        <lane id=":AA4_2_0" index="0" speed="9.26" length="5.01" shape="-1.60,810.40 -0.89,805.44"/>
    </edge>
    <edge id=":AA4_9" function="internal">
        <lane id=":AA4_9_0" index="0" speed="9.26" length="14.34" shape="-0.89,805.44 -0.85,805.15 1.40,801.40 5.15,799.15 10.40,798.40"/>
    </edge>
    <edge id=":AA4_3" function="internal">
        <lane id=":AA4_3_0" index="0" speed="6.51" length="9.03" shape="10.40,804.80 7.95,805.15 6.20,806.20 5.15,807.95 4.80,810.40"/>
        <lane id=":AA4_3_1" index="1" speed="8.00" length="14.19" shape="10.40,801.60 6.55,802.15 3.80,803.80 2.15,806.55 1.60,810.40"/>
    </edge>
    <edge id=":AA4_5" function="internal">
        <lane id=":AA4_5_0" index="0" speed="9.26" length="19.35" shape="10.40,801.60 5.15,800.85 1.40,798.60 -0.85,794.85 -1.60,789.60"/>
    </edge>
    <edge id=":AA4_6" function="internal">
        <lane id=":AA4_6_0" index="0" speed="6.51" length="9.03" shape="4.80,789.60 5.15,792.05 6.20,793.80 7.95,794.85 10.40,795.20"/>
    </edge>
    <edge id=":AA4_7" function="internal">
        <lane id=":AA4_7_0" index="0" speed="13.89" length="20.80" shape="4.80,789.60 4.80,810.40"/>
        <lane id=":AA4_7_1" index="1" speed="13.89" length="20.80" shape="1.60,789.60 1.60,810.40"/>
    </edge>
    <edge id=":AA5_0" function="internal">
        <lane id=":AA5_0_0" index="0" speed="13.89" length="20.80" shape="-4.80,1010.40 -4.80,989.60"/>
        <lane id=":AA5_0_1" index="1" speed="13.89" length="20.80" shape="-1.60,1010.40 -1.60,989.60"/>
    </edge>
    <edge id=":AA5_2" function="internal">
        <lane id=":AA5_2_0" index="0" speed="9.26" length="5.01" shape="-1.60,1010.40 -0.89,1005.44"/>
    </edge>
    <edge id=":AA5_9" function="internal">
        <lane id=":AA5_9_0" index="0" speed="9.26" length="14.34" shape="-0.89,1005.44 -0.85,1005.15 1.40,1001.40 5.15,999.15 10.40,998.40"/>
    </edge>
    <edge id=":AA5_3" function="internal">
        <lane id=":AA5_3_0" index="0" speed="6.51" length="9.03" shape="10.40,1004.80 7.95,1005.15 6.20,1006.20 5.15,1007.95 4.80,1010.40"/>
        <lane id=":AA5_3_1" index="1" speed="8.00" length="14.19" shape="10.40,1001.60 6.55,1002.15 3.80,1003.80 2.15,1006.55 1.60,1010.40"/>
    </edge>
    <edge id=":AA5_5" function="internal">
        <lane id=":AA5_5_0" index="0" speed="9.26" length="19.35" shape="10.40,1001.60 5.15,1000.85 1.40,998.60 -0.85,994.85 -1.60,989.60"/>
    </edge>
    <edge id=":AA5_6" function="internal">
        <lane id=":AA5_6_0" index="0" speed="6.51" length="9.03" shape="4.80,989.60 5.15,992.05 6.20,993.80 7.95,994.85 10.40,995.20"/>
    </edge>
    <edge id=":AA5_7" function="internal">
        <lane id=":AA5_7_0" index="0" speed="13.89" length="20.80" shape="4.80,989.60 4.80,1010.40"/>
        <lane id=":AA5_7_1" index="1" speed="13.89" length="20.80" shape="1.60,989.60 1.60,1010.40"/>
    </edge>
    <edge id=":AA6_0" function="internal">
        <lane id=":AA6_0_0" index="0" speed="8.96" length="18.06" shape="6.40,1204.80 1.50,1204.10 -2.00,1202.00 -4.10,1198.50 -4.80,1193.60"/>
        <lane id=":AA6_0_1" index="1" speed="7.66" length="12.90" shape="6.40,1201.60 2.90,1201.10 0.40,1199.60 -1.10,1197.10 -1.60,1193.60"/>
    </edge>
    <edge id=":AA6_2" function="internal">
        <lane id=":AA6_2_0" index="0" speed="3.90" length="2.58" shape="4.80,1193.60 4.90,1194.30 5.20,1194.80 5.70,1195.10 6.40,1195.20"/>
        <lane id=":AA6_2_1" index="1" speed="6.08" length="7.74" shape="1.60,1193.60 1.90,1195.70 2.80,1197.20 4.30,1198.10 6.40,1198.40"/>
    </edge>
    <edge id=":AB0_0" function="internal">
        <lane id=":AB0_0_0" index="0" speed="6.51" length="9.03" shape="195.20,10.40 194.85,7.95 193.80,6.20 192.05,5.15 189.60,4.80"/>
        <lane id=":AB0_0_1" index="1" speed="8.00" length="14.19" shape="198.40,10.40 197.85,6.55 196.20,3.80 193.45,2.15 189.60,1.60"/>
    </edge>
    <edge id=":AB0_2" function="internal">
        <lane id=":AB0_2_0" index="0" speed="9.26" length="19.35" shape="198.40,10.40 199.15,5.15 201.40,1.40 205.15,-0.85 210.40,-1.60"/>
    </edge>
    <edge id=":AB0_3" function="internal">
        <lane id=":AB0_3_0" index="0" speed="6.51" length="9.03" shape="210.40,4.80 207.95,5.15 206.20,6.20 205.15,7.95 204.80,10.40"/>
    </edge>
    <edge id=":AB0_4" function="internal">
        <lane id=":AB0_4_0" index="0" speed="13.89" length="20.80" shape="210.40,4.80 189.60,4.80"/>
        <lane id=":AB0_4_1" index="1" speed="13.89" length="20.80" shape="210.40,1.60 189.60,1.60"/>
    </edge>
    <edge id=":AB0_6" function="internal">
        <lane id=":AB0_6_0" index="0" speed="13.89" length="20.80" shape="189.60,-4.80 210.40,-4.80"/>
        <lane id=":AB0_6_1" index="1" speed="13.89" length="20.80" shape="189.60,-1.60 210.40,-1.60"/>
    </edge>
    <edge id=":AB0_8" function="internal">
        <lane id=":AB0_8_0" index="0" speed="9.26" length="5.01" shape="189.60,-1.60 194.56,-0.89"/>
    </edge>
    <edge id=":AB0_9" function="internal">
        <lane id=":AB0_9_0" index="0" speed="9.26" length="14.34" shape="194.56,-0.89 194.85,-0.85 198.60,1.40 200.85,5.15 201.60,10.40"/>
    </edge>
    <edge id=":AB1_0" function="internal">
        <lane id=":AB1_0_0" index="0" speed="6.51" length="9.03" shape="195.20,210.40 194.85,207.95 193.80,206.20 192.05,205.15 189.60,204.80"/>
    </edge>
    <edge id=":AB1_1" function="internal">
        <lane id=":AB1_1_0" index="0" speed="13.89" length="20.80" shape="195.20,210.40 195.20,189.60"/>
        <lane id=":AB1_1_1" index="1" speed="13.89" length="20.80" shape="198.40,210.40 198.40,189.60"/>
    </edge>
    <edge id=":AB1_3" function="internal">
        <lane id=":AB1_3_0" index="0" speed="9.26" length="5.01" shape="198.40,210.40 199.11,205.44"/>
    </edge>
    <edge id=":AB1_16" function="internal">
        <lane id=":AB1_16_0" index="0" speed="9.26" length="14.34" shape="199.11,205.44 199.15,205.15 201.40,201.40 205.15,199.15 210.40,198.40"/>
    </edge>
    <edge id=":AB1_4" function="internal">
        <lane id=":AB1_4_0" index="0" speed="6.51" length="9.03" shape="210.40,204.80 207.95,205.15 206.20,206.20 205.15,207.95 204.80,210.40"/>
    </edge>
    <edge id=":AB1_5" function="internal">
        <lane id=":AB1_5_0" index="0" speed="13.89" length="20.80" shape="210.40,204.80 189.60,204.80"/>
        <lane id=":AB1_5_1" index="1" speed="13.89" length="20.80" shape="210.40,201.60 189.60,201.60"/>
    </edge>
    <edge id=":AB1_7" function="internal">
        <lane id=":AB1_7_0" index="0" speed="9.26" length="5.01" shape="210.40,201.60 205.44,200.89"/>
    </edge>
    <edge id=":AB1_17" function="internal">
        <lane id=":AB1_17_0" index="0" speed="9.26" length="14.34" shape="205.44,200.89 205.15,200.85 201.40,198.60 199.15,194.85 198.40,189.60"/>
    </edge>
    <edge id=":AB1_8" function="internal">
        <lane id=":AB1_8_0" index="0" speed="6.51" length="9.03" shape="204.80,189.60 205.15,192.05 206.20,193.80 207.95,194.85 210.40,195.20"/>
    </edge>
    <edge id=":AB1_9" function="internal">
        <lane id=":AB1_9_0" index="0" speed="13.89" length="20.80" shape="204.80,189.60 204.80,210.40"/>
        <lane id=":AB1_9_1" index="1" speed="13.89" length="20.80" shape="201.60,189.60 201.60,210.40"/>
    </edge>
    <edge id=":AB1_11" function="internal">
        <lane id=":AB1_11_0" index="0" speed="9.26" length="5.01" shape="201.60,189.60 200.89,194.56"/>
    </edge>
    <edge id=":AB1_18" function="internal">
        <lane id=":AB1_18_0" index="0" speed="9.26" length="14.34" shape="200.89,194.56 200.85,194.85 198.60,198.60 194.85,200.85 189.60,201.60"/>
    </edge>
    <edge id=":AB1_12" function="internal">
        <lane id=":AB1_12_0" index="0" speed="6.51" length="9.03" shape="189.60,195.20 192.05,194.85 193.80,193.80 194.85,192.05 195.20,189.60"/>
    </edge>
    <edge id=":AB1_13" function="internal">
        <lane id=":AB1_13_0" index="0" speed="13.89" length="20.80" shape="189.60,195.20 210.40,195.20"/>
        <lane id=":AB1_13_1" index="1" speed="13.89" length="20.80" shape="189.60,198.40 210.40,198.40"/>
    </edge>
    <edge id=":AB1_15" function="internal">
        <lane id=":AB1_15_0" index="0" speed="9.26" length="5.01" shape="189.60,198.40 194.56,199.11"/>
    </edge>
    <edge id=":AB1_19" function="internal">
        <lane id=":AB1_19_0" index="0" speed="9.26" length="14.34" shape="194.56,199.11 194.85,199.15 198.60,201.40 200.85,205.15 201.60,210.40"/>
    </edge>
    <edge id=":AB2_0" function="internal">
        <lane id=":AB2_0_0" index="0" speed="6.51" length="9.03" shape="195.20,410.40 194.85,407.95 193.80,406.20 192.05,405.15 189.60,404.80"/>
    </edge>
    <edge id=":AB2_1" function="internal">
        <lane id=":AB2_1_0" index="0" speed="13.89" length="20.80" shape="195.20,410.40 195.20,389.60"/>
        <lane id=":AB2_1_1" index="1" speed="13.89" length="20.80" shape="198.40,410.40 198.40,389.60"/>
    </edge>
    <edge id=":AB2_3" function="internal">
        <lane id=":AB2_3_0" index="0" speed="9.26" length="5.01" shape="198.40,410.40 199.11,405.44"/>
    </edge>
    <edge id=":AB2_16" function="internal">
        <lane id=":AB2_16_0" index="0" speed="9.26" length="14.34" shape="199.11,405.44 199.15,405.15 201.40,401.40 205.15,399.15 210.40,398.40"/>
    </edge>
    <edge id=":AB2_4" function="internal">
        <lane id=":AB2_4_0" index="0" speed="6.51" length="9.03" shape="210.40,404.80 207.95,405.15 206.20,406.20 205.15,407.95 204.80,410.40"/>
    </edge>
    <edge id=":AB2_5" function="internal">
        <lane id=":AB2_5_0" index="0" speed="13.89" length="20.80" shape="210.40,404.80 189.60,404.80"/>
        <lane id=":AB2_5_1" index="1" speed="13.89" length="20.80" shape="210.40,401.60 189.60,401.60"/>
    </edge>
    <edge id=":AB2_7" function="internal">
        <lane id=":AB2_7_0" index="0" speed="9.26" length="5.01" shape="210.40,401.60 205.44,400.89"/>
    </edge>
    <edge id=":AB2_17" function="internal">
        <lane id=":AB2_17_0" index="0" speed="9.26" length="14.34" shape="205.44,400.89 205.15,400.85 201.40,398.60 199.15,394.85 198.40,389.60"/>
    </edge>
    <edge id=":AB2_8" function="internal">
        <lane id=":AB2_8_0" index="0" speed="6.51" length="9.03" shape="204.80,389.60 205.15,392.05 206.20,393.80 207.95,394.85 210.40,395.20"/>
    </edge>
    <edge id=":AB2_9" function="internal">
        <lane id=":AB2_9_0" index="0" speed="13.89" length="20.80" shape="204.80,389.60 204.80,410.40"/>
        <lane id=":AB2_9_1" index="1" speed="13.89" length="20.80" shape="201.60,389.60 201.60,410.40"/>
    </edge>
    <edge id=":AB2_11" function="internal">
        <lane id=":AB2_11_0" index="0" speed="9.26" length="5.01" shape="201.60,389.60 200.89,394.56"/>
    </edge>
    <edge id=":AB2_18" function="internal">
        <lane id=":AB2_18_0" index="0" speed="9.26" length="14.34" shape="200.89,394.56 200.85,394.85 198.60,398.60 194.85,400.85 189.60,401.60"/>
    </edge>
    <edge id=":AB2_12" function="internal">
        <lane id=":AB2_12_0" index="0" speed="6.51" length="9.03" shape="189.60,395.20 192.05,394.85 193.80,393.80 194.85,392.05 195.20,389.60"/>
    </edge>
    <edge id=":AB2_13" function="internal">
        <lane id=":AB2_13_0" index="0" speed="13.89" length="20.80" shape="189.60,395.20 210.40,395.20"/>
        <lane id=":AB2_13_1" index="1" speed="13.89" length="20.80" shape="189.60,398.40 210.40,398.40"/>
    </edge>
    <edge id=":AB2_15" function="internal">
        <lane id=":AB2_15_0" index="0" speed="9.26" length="5.01" shape="189.60,398.40 194.56,399.11"/>
    </edge>
    <edge id=":AB2_19" function="internal">
        <lane id=":AB2_19_0" index="0" speed="9.26" length="14.34" shape="194.56,399.11 194.85,399.15 198.60,401.40 200.85,405.15 201.60,410.40"/>
    </edge>
    <edge id=":AB3_0" function="internal">
        <lane id=":AB3_0_0" index="0" speed="6.51" length="9.03" shape="195.20,610.40 194.85,607.95 193.80,606.20 192.05,605.15 189.60,604.80"/>
    </edge>
    <edge id=":AB3_1" function="internal">
        <lane id=":AB3_1_0" index="0" speed="13.89" length="20.80" shape="195.20,610.40 195.20,589.60"/>
        <lane id=":AB3_1_1" index="1" speed="13.89" length="20.80" shape="198.40,610.40 198.40,589.60"/>
    </edge>
    <edge id=":AB3_3" function="internal">
        <lane id=":AB3_3_0" index="0" speed="9.26" length="5.01" shape="198.40,610.40 199.11,605.44"/>
    </edge>
    <edge id=":AB3_16" function="internal">
        <lane id=":AB3_16_0" index="0" speed="9.26" length="14.34" shape="199.11,605.44 199.15,605.15 201.40,601.40 205.15,599.15 210.40,598.40"/>
    </edge>
    <edge id=":AB3_4" function="internal">
        <lane id=":AB3_4_0" index="0" speed="6.51" length="9.03" shape="210.40,604.80 207.95,605.15 206.20,606.20 205.15,607.95 204.80,610.40"/>
    </edge>
    <edge id=":AB3_5" function="internal">
        <lane id=":AB3_5_0" index="0" speed="13.89" length="20.80" shape="210.40,604.80 189.60,604.80"/>
        <lane id=":AB3_5_1" index="1" speed="13.89" length="20.80" shape="210.40,601.60 189.60,601.60"/>
    </edge>
    <edge id=":AB3_7" function="internal">
        <lane id=":AB3_7_0" index="0" speed="9.26" length="5.01" shape="210.40,601.60 205.44,600.89"/>
    </edge>
    <edge id=":AB3_17" function="internal">
        <lane id=":AB3_17_0" index="0" speed="9.26" length="14.34" shape="205.44,600.89 205.15,600.85 201.40,598.60 199.15,594.85 198.40,589.60"/>
    </edge>
    <edge id=":AB3_8" function="internal">
        <lane id=":AB3_8_0" index="0" speed="6.51" length="9.03" shape="204.80,589.60 205.15,592.05 206.20,593.80 207.95,594.85 210.40,595.20"/>
    </edge>
    <edge id=":AB3_9" function="internal">
        <lane id=":AB3_9_0" index="0" speed="13.89" length="20.80" shape="204.80,589.60 204.80,610.40"/>
        <lane id=":AB3_9_1" index="1" speed="13.89" length="20.80" shape="201.60,589.60 201.60,610.40"/>
    </edge>
    <edge id=":AB3_11" function="internal">
        <lane id=":AB3_11_0" index="0" speed="9.26" length="5.01" shape="201.60,589.60 200.89,594.56"/>
    </edge>
    <edge id=":AB3_18" function="internal">
        <lane id=":AB3_18_0" index="0" speed="9.26" length="14.34" shape="200.89,594.56 200.85,594.85 198.60,598.60 194.85,600.85 189.60,601.60"/>
    </edge>
    <edge id=":AB3_12" function="internal">
        <lane id=":AB3_12_0" index="0" speed="6.51" length="9.03" shape="189.60,595.20 192.05,594.85 193.80,593.80 194.85,592.05 195.20,589.60"/>
    </edge>
    <edge id=":AB3_13" function="internal">
        <lane id=":AB3_13_0" index="0" speed="13.89" length="20.80" shape="189.60,595.20 210.40,595.20"/>
        <lane id=":AB3_13_1" index="1" speed="13.89" length="20.80" shape="189.60,598.40 210.40,598.40"/>
    </edge>
    <edge id=":AB3_15" function="internal">
        <lane id=":AB3_15_0" index="0" speed="9.26" length="5.01" shape="189.60,598.40 194.56,599.11"/>
    </edge>
    <edge id=":AB3_19" function="internal">
        <lane id=":AB3_19_0" index="0" speed="9.26" length="14.34" shape="194.56,599.11 194.85,599.15 198.60,601.40 200.85,605.15 201.60,610.40"/>
    </edge>
    <edge id=":AB4_0" function="internal">
        <lane id=":AB4_0_0" index="0" speed="6.51" length="9.03" shape="195.20,810.40 194.85,807.95 193.80,806.20 192.05,805.15 189.60,804.80"/>
    </edge>
    <edge id=":AB4_1" function="internal">
        <lane id=":AB4_1_0" index="0" speed="13.89" length="20.80" shape="195.20,810.40 195.20,789.60"/>
        <lane id=":AB4_1_1" index="1" speed="13.89" length="20.80" shape="198.40,810.40 198.40,789.60"/>
    </edge>
    <edge id=":AB4_3" function="internal">
        <lane id=":AB4_3_0" index="0" speed="9.26" length="5.01" shape="198.40,810.40 199.11,805.44"/>
    </edge>
    <edge id=":AB4_16" function="internal">
        <lane id=":AB4_16_0" index="0" speed="9.26" length="14.34" shape="199.11,805.44 199.15,805.15 201.40,801.40 205.15,799.15 210.40,798.40"/>
    </edge>
    <edge id=":AB4_4" function="internal">
        <lane id=":AB4_4_0" index="0" speed="6.51" length="9.03" shape="210.40,804.80 207.95,805.15 206.20,806.20 205.15,807.95 204.80,810.40"/>
    </edge>
    <edge id=":AB4_5" function="internal">
        <lane id=":AB4_5_0" index="0" speed="13.89" length="20.80" shape="210.40,804.80 189.60,804.80"/>
        <lane id=":AB4_5_1" index="1" speed="13.89" length="20.80" shape="210.40,801.60 189.60,801.60"/>
    </edge>
    <edge id=":AB4_7" function="internal">
        <lane id=":AB4_7_0" index="0" speed="9.26" length="5.01" shape="210.40,801.60 205.44,800.89"/>
    </edge>
    <edge id=":AB4_17" function="internal">
        <lane id=":AB4_17_0" index="0" speed="9.26" length="14.34" shape="205.44,800.89 205.15,800.85 201.40,798.60 199.15,794.85 198.40,789.60"/>
    </edge>
    <edge id=":AB4_8" function="internal">
        <lane id=":AB4_8_0" index="0" speed="6.51" length="9.03" shape="204.80,789.60 205.15,792.05 206.20,793.80 207.95,794.85 210.40,795.20"/>
    </edge>
    <edge id=":AB4_9" function="internal">
        <lane id=":AB4_9_0" index="0" speed="13.89" length="20.80" shape="204.80,789.60 204.80,810.40"/>
        <lane id=":AB4_9_1" index="1" speed="13.89" length="20.80" shape="201.60,789.60 201.60,810.40"/>
    </edge>
    <edge id=":AB4_11" function="internal">
        <lane id=":AB4_11_0" index="0" speed="9.26" length="5.01" shape="201.60,789.60 200.89,794.56"/>
    </edge>
    <edge id=":AB4_18" function="internal">
        <lane id=":AB4_18_0" index="0" speed="9.26" length="14.34" shape="200.89,794.56 200.85,794.85 198.60,798.60 194.85,800.85 189.60,801.60"/>
    </edge>
    <edge id=":AB4_12" function="internal">
        <lane id=":AB4_12_0" index="0" speed="6.51" length="9.03" shape="189.60,795.20 192.05,794.85 193.80,793.80 194.85,792.05 195.20,789.60"/>
    </edge>
    <edge id=":AB4_13" function="internal">
        <lane id=":AB4_13_0" index="0" speed="13.89" length="20.80" shape="189.60,795.20 210.40,795.20"/>
        <lane id=":AB4_13_1" index="1" speed="13.89" length="20.80" shape="189.60,798.40 210.40,798.40"/>
    </edge>
    <edge id=":AB4_15" function="internal">
        <lane id=":AB4_15_0" index="0" speed="9.26" length="5.01" shape="189.60,798.40 194.56,799.11"/>
    </edge>
    <edge id=":AB4_19" function="internal">
        <lane id=":AB4_19_0" index="0" speed="9.26" length="14.34" shape="194.56,799.11 194.85,799.15 198.60,801.40 200.85,805.15 201.60,810.40"/>
    </edge>
    <edge id=":AB5_0" function="internal">
        <lane id=":AB5_0_0" index="0" speed="6.51" length="9.03" shape="195.20,1010.40 194.85,1007.95 193.80,1006.20 192.05,1005.15 189.60,1004.80"/>
    </edge>
    <edge id=":AB5_1" function="internal">
        <lane id=":AB5_1_0" index="0" speed="13.89" length="20.80" shape="195.20,1010.40 195.20,989.60"/>
        <lane id=":AB5_1_1" index="1" speed="13.89" length="20.80" shape="198.40,1010.40 198.40,989.60"/>
    </edge>
    <edge id=":AB5_3" function="internal">
        <lane id=":AB5_3_0" index="0" speed="9.26" length="5.01" shape="198.40,1010.40 199.11,1005.44"/>
    </edge>
    <edge id=":AB5_16" function="internal">
        <lane id=":AB5_16_0" index="0" speed="9.26" length="14.34" shape="199.11,1005.44 199.15,1005.15 201.40,1001.40 205.15,999.15 210.40,998.40"/>
    </edge>
    <edge id=":AB5_4" function="internal">
        <lane id=":AB5_4_0" index="0" speed="6.51" length="9.03" shape="210.40,1004.80 207.95,1005.15 206.20,1006.20 205.15,1007.95 204.80,1010.40"/>
    </edge>
    <edge id=":AB5_5" function="internal">
        <lane id=":AB5_5_0" index="0" speed="13.89" length="20.80" shape="210.40,1004.80 189.60,1004.80"/>
        <lane id=":AB5_5_1" index="1" speed="13.89" length="20.80" shape="210.40,1001.60 189.60,1001.60"/>
    </edge>
    <edge id=":AB5_7" function="internal">
        <lane id=":AB5_7_0" index="0" speed="9.26" length="5.01" shape="210.40,1001.60 205.44,1000.89"/>
    </edge>
    <edge id=":AB5_17" function="internal">
        <lane id=":AB5_17_0" index="0" speed="9.26" length="14.34" shape="205.44,1000.89 205.15,1000.85 201.40,998.60 199.15,994.85 198.40,989.60"/>
    </edge>
    <edge id=":AB5_8" function="internal">
        <lane id=":AB5_8_0" index="0" speed="6.51" length="9.03" shape="204.80,989.60 205.15,992.05 206.20,993.80 207.95,994.85 210.40,995.20"/>
    </edge>
    <edge id=":AB5_9" function="internal">
        <lane id=":AB5_9_0" index="0" speed="13.89" length="20.80" shape="204.80,989.60 204.80,1010.40"/>
        <lane id=":AB5_9_1" index="1" speed="13.89" length="20.80" shape="201.60,989.60 201.60,1010.40"/>
    </edge>
    <edge id=":AB5_11" function="internal">
        <lane id=":AB5_11_0" index="0" speed="9.26" length="5.01" shape="201.60,989.60 200.89,994.56"/>
    </edge>
    <edge id=":AB5_18" function="internal">
        <lane id=":AB5_18_0" index="0" speed="9.26" length="14.34" shape="200.89,994.56 200.85,994.85 198.60,998.60 194.85,1000.85 189.60,1001.60"/>
    </edge>
    <edge id=":AB5_12" function="internal">
        <lane id=":AB5_12_0" index="0" speed="6.51" length="9.03" shape="189.60,995.20 192.05,994.85 193.80,993.80 194.85,992.05 195.20,989.60"/>
    </edge>
    <edge id=":AB5_13" function="internal">
        <lane id=":AB5_13_0" index="0" speed="13.89" length="20.80" shape="189.60,995.20 210.40,995.20"/>
        <lane id=":AB5_13_1" index="1" speed="13.89" length="20.80" shape="189.60,998.40 210.40,998.40"/>
    </edge>
    <edge id=":AB5_15" function="internal">
        <lane id=":AB5_15_0" index="0" speed="9.26" length="5.01" shape="189.60,998.40 194.56,999.11"/>
    </edge>
    <edge id=":AB5_19" function="internal">
        <lane id=":AB5_19_0" index="0" speed="9.26" length="14.34" shape="194.56,999.11 194.85,999.15 198.60,1001.40 200.85,1005.15 201.60,1010.40"/>
    </edge>
    <edge id=":AB6_0" function="internal">
        <lane id=":AB6_0_0" index="0" speed="13.89" length="20.80" shape="210.40,1204.80 189.60,1204.80"/>
        <lane id=":AB6_0_1" index="1" speed="13.89" length="20.80" shape="210.40,1201.60 189.60,1201.60"/>
    </edge>
    <edge id=":AB6_2" function="internal">
        <lane id=":AB6_2_0" index="0" speed="9.26" length="5.01" shape="210.40,1201.60 205.44,1200.89"/>
    </edge>
    <edge id=":AB6_9" function="internal">
        <lane id=":AB6_9_0" index="0" speed="9.26" length="14.34" shape="205.44,1200.89 205.15,1200.85 201.40,1198.60 199.15,1194.85 198.40,1189.60"/>
    </edge>
    <edge id=":AB6_3" function="internal">
        <lane id=":AB6_3_0" index="0" speed="6.51" length="9.03" shape="204.80,1189.60 205.15,1192.05 206.20,1193.80 207.95,1194.85 210.40,1195.20"/>
        <lane id=":AB6_3_1" index="1" speed="8.00" length="14.19" shape="201.60,1189.60 202.15,1193.45 203.80,1196.20 206.55,1197.85 210.40,1198.40"/>
    </edge>
    <edge id=":AB6_5" function="internal">
        <lane id=":AB6_5_0" index="0" speed="9.26" length="19.35" shape="201.60,1189.60 200.85,1194.85 198.60,1198.60 194.85,1200.85 189.60,1201.60"/>