<?xml version="1.0" ?>
<routes xmlns:xsi="http://www.w3.org/2001/XMLSchema-instance" xsi:noNamespaceSchemaLocation="http://sumo.dlr.de/xsd/routes_file.xsd">
    <vType id="civilian" vClass="passenger" accel="2.6" decel="4.5" sigma="0.4" length="5.0" minGap="2.5" maxSpeed="13.9" color="0,90,255"/>
    <vType id="emergency" vClass="emergency" guiShape="emergency" accel="4.0" decel="5.0" sigma="0.1" length="6.5" minGap="1.0" maxSpeed="22.0" speedFactor="1.25" color="255,0,0"/>
    <route id="west_in_0_straight" edges="AA0AB0 AB0AC0 AC0AD0 AD0AE0 AE0AF0 AF0AG0 AG0AH0 AH0AI0 AI0AJ0 AJ0AK0 AK0AL0 AL0AM0 AM0AN0 AN0AO0 AO0AP0 AP0AQ0 AQ0AR0 AR0AS0 AS0AT0 AT0AU0 AU0AV0 AV0AW0 AW0AX0 AX0AY0 AY0AZ0 AZ0BA0 BA0BB0"/>
    <route id="west_in_0_turn_a" edges="AA0AB0 AB0AB1 AB1AB2 AB2AB3 AB3AB4 AB4AB5 AB5AB6"/>
    <route id="west_in_0_turn_b" edges="AA0AB0 AB0AB1 AB1AA1 AA1AA0"/>
    <routeDistribution id="west_in_dist_0">
        <route refId="west_in_0_straight" probability="0.50"/>
        <route refId="west_in_0_turn_a" probability="0.25"/>
        <route refId="west_in_0_turn_b" probability="0.25"/>
    </routeDistribution>
    <flow id="west_in_flow_0" type="civilian" route="west_in_dist_0" begin="0" end="3600" vehsPerHour="240" departLane="best" departSpeed="max"/>
    <route id="west_in_1_straight" edges="AA1AB1 AB1AC1 AC1AD1 AD1AE1 AE1AF1 AF1AG1 AG1AH1 AH1AI1 AI1AJ1 AJ1AK1 AK1AL1 AL1AM1 AM1AN1 AN1AO1 AO1AP1 AP1AQ1 AQ1AR1 AR1AS1 AS1AT1 AT1AU1 AU1AV1 AV1AW1 AW1AX1 AX1AY1 AY1AZ1 AZ1BA1 BA1BB1"/>
    <route id="west_in_1_turn_a" edges="AA1AB1 AB1AB2 AB2AB3 AB3AB4 AB4AB5 AB5AC5 AC5AC6"/>
    <route id="west_in_1_turn_b" edges="AA1AB1 AB1AB0"/>
    <routeDistribution id="west_in_dist_1">
        <route refId="west_in_1_straight" probability="0.50"/>
        <route refId="west_in_1_turn_a" probability="0.25"/>
        <route refId="west_in_1_turn_b" probability="0.25"/>
    </routeDistribution>
    <flow id="west_in_flow_1" type="civilian" route="west_in_dist_1" begin="0" end="3600" vehsPerHour="240" departLane="best" departSpeed="max"/>
    <route id="west_in_2_straight" edges="AA2AB2 AB2AC2 AC2AD2 AD2AE2 AE2AF2 AF2AG2 AG2AH2 AH2AI2 AI2AJ2 AJ2AK2 AK2AL2 AL2AM2 AM2AN2 AN2AO2 AO2AP2 AP2AQ2 AQ2AR2 AR2AS2 AS2AT2 AT2AU2 AU2AV2 AV2AW2 AW2AX2 AX2AY2 AY2AZ2 AZ2BA2 BA2BB2"/>
    <route id="west_in_2_turn_a" edges="AA2AB2 AB2AB3 AB3AB4 AB4AB5 AB5AC5 AC5AD5 AD5AD6"/>
    <route id="west_in_2_turn_b" edges="AA2AB2 AB2AB1 AB1AC1 AC1AC0"/>
    <routeDistribution id="west_in_dist_2">
        <route refId="west_in_2_straight" probability="0.50"/>
        <route refId="west_in_2_turn_a" probability="0.25"/>
        <route refId="west_in_2_turn_b" probability="0.25"/>
    </routeDistribution>
    <flow id="west_in_flow_2" type="civilian" route="west_in_dist_2" begin="0" end="3600" vehsPerHour="240" departLane="best" departSpeed="max"/>
    <route id="west_in_3_straight" edges="AA3AB3 AB3AC3 AC3AD3 AD3AE3 AE3AF3 AF3AG3 AG3AH3 AH3AI3 AI3AJ3 AJ3AK3 AK3AL3 AL3AM3 AM3AN3 AN3AO3 AO3AP3 AP3AQ3 AQ3AR3 AR3AS3 AS3AT3 AT3AU3 AU3AV3 AV3AW3 AW3AX3 AX3AY3 AY3AZ3 AZ3BA3 BA3BB3"/>
    <route id="west_in_3_turn_a" edges="AA3AB3 AB3AB4 AB4AB5 AB5AC5 AC5AD5 AD5AE5 AE5AE6"/>
    <route id="west_in_3_turn_b" edges="AA3AB3 AB3AB2 AB2AB1 AB1AC1 AC1AD1 AD1AD0"/>
    <routeDistribution id="west_in_dist_3">
        <route refId="west_in_3_straight" probability="0.50"/>
        <route refId="west_in_3_turn_a" probability="0.25"/>
        <route refId="west_in_3_turn_b" probability="0.25"/>
    </routeDistribution>
    <flow id="west_in_flow_3" type="civilian" route="west_in_dist_3" begin="0" end="3600" vehsPerHour="240" departLane="best" departSpeed="max"/>
    <route id="west_in_4_straight" edges="AA4AB4 AB4AC4 AC4AD4 AD4AE4 AE4AF4 AF4AG4 AG4AH4 AH4AI4 AI4AJ4 AJ4AK4 AK4AL4 AL4AM4 AM4AN4 AN4AO4 AO4AP4 AP4AQ4 AQ4AR4 AR4AS4 AS4AT4 AT4AU4 AU4AV4 AV4AW4 AW4AX4 AX4AY4 AY4AZ4 AZ4BA4 BA4BB4"/>
    <route id="west_in_4_turn_a" edges="AA4AB4 AB4AB5 AB5AC5 AC5AD5 AD5AE5 AE5AF5 AF5AF6"/>
    <route id="west_in_4_turn_b" edges="AA4AB4 AB4AB3 AB3AB2 AB2AB1 AB1AC1 AC1AD1 AD1AE1 AE1AE0"/>
    <routeDistribution id="west_in_dist_4">
        <route refId="west_in_4_straight" probability="0.50"/>
        <route refId="west_in_4_turn_a" probability="0.25"/>
        <route refId="west_in_4_turn_b" probability="0.25"/>
    </routeDistribution>
    <flow id="west_in_flow_4" type="civilian" route="west_in_dist_4" begin="0" end="3600" vehsPerHour="240" departLane="best" departSpeed="max"/>
    <route id="west_in_5_straight" edges="AA5AB5 AB5AC5 AC5AD5 AD5AE5 AE5AF5 AF5AG5 AG5AH5 AH5AI5 AI5AJ5 AJ5AK5 AK5AL5 AL5AM5 AM5AN5 AN5AO5 AO5AP5 AP5AQ5 AQ5AR5 AR5AS5 AS5AT5 AT5AU5 AU5AV5 AV5AW5 AW5AX5 AX5AY5 AY5AZ5 AZ5BA5 BA5BB5"/>
    <route id="west_in_5_turn_a" edges="AA5AB5 AB5AC5 AC5AD5 AD5AE5 AE5AF5 AF5AG5 AG5AG6"/>
    <route id="west_in_5_turn_b" edges="AA5AB5 AB5AB4 AB4AB3 AB3AB2 AB2AB1 AB1AC1 AC1AD1 AD1AE1 AE1AF1 AF1AF0"/>
    <routeDistribution id="west_in_dist_5">
        <route refId="west_in_5_straight" probability="0.50"/>
        <route refId="west_in_5_turn_a" probability="0.25"/>
        <route refId="west_in_5_turn_b" probability="0.25"/>
    </routeDistribution>
    <flow id="west_in_flow_5" type="civilian" route="west_in_dist_5" begin="0" end="3600" vehsPerHour="240" departLane="best" departSpeed="max"/>
    <route id="west_in_6_straight" edges="AA6AB6 AB6AC6 AC6AD6 AD6AE6 AE6AF6 AF6AG6 AG6AH6 AH6AI6 AI6AJ6 AJ6AK6 AK6AL6 AL6AM6 AM6AN6 AN6AO6 AO6AP6 AP6AQ6 AQ6AR6 AR6AS6 AS6AT6 AT6AU6 AU6AV6 AV6AW6 AW6AX6 AX6AY6 AY6AZ6 AZ6BA6 BA6BB6"/>
    <route id="west_in_6_turn_a" edges="AA6AB6 AB6AB5 AB5AC5 AC5AD5 AD5AE5 AE5AF5 AF5AG5 AG5AH5 AH5AH6"/>
    <route id="west_in_6_turn_b" edges="AA6AB6 AB6AB5 AB5AB4 AB4AB3 AB3AB2 AB2AB1 AB1AC1 AC1AD1 AD1AE1 AE1AF1 AF1AG1 AG1AG0"/>
    <routeDistribution id="west_in_dist_6">
        <route refId="west_in_6_straight" probability="0.50"/>
        <route refId="west_in_6_turn_a" probability="0.25"/>
        <route refId="west_in_6_turn_b" probability="0.25"/>
    </routeDistribution>
    <flow id="west_in_flow_6" type="civilian" route="west_in_dist_6" begin="0" end="3600" vehsPerHour="240" departLane="best" departSpeed="max"/>
    <route id="east_in_0_straight" edges="BB0BA0 BA0AZ0 AZ0AY0 AY0AX0 AX0AW0 AW0AV0 AV0AU0 AU0AT0 AT0AS0 AS0AR0 AR0AQ0 AQ0AP0 AP0AO0 AO0AN0 AN0AM0 AM0AL0 AL0AK0 AK0AJ0 AJ0AI0 AI0AH0 AH0AG0 AG0AF0 AF0AE0 AE0AD0 AD0AC0 AC0AB0 AB0AA0"/>
    <route id="east_in_0_turn_a" edges="BB0BA0 BA0AZ0 AZ0AY0 AY0AX0 AX0AW0 AW0AV0 AV0AU0 AU0AT0 AT0AS0 AS0AR0 AR0AQ0 AQ0AP0 AP0AO0 AO0AN0 AN0AM0 AM0AL0 AL0AK0 AK0AJ0 AJ0AI0 AI0AH0 AH0AG0 AG0AF0 AF0AE0 AE0AD0 AD0AC0 AC0AC1 AC1AB1 AB1AB0"/>
    <route id="east_in_0_turn_b" edges="BB0BA0 BA0AZ0 AZ0AY0 AY0AX0 AX0AW0 AW0AV0 AV0AU0 AU0AT0 AT0AS0 AS0AR0 AR0AQ0 AQ0AP0 AP0AO0 AO0AN0 AN0AM0 AM0AL0 AL0AK0 AK0AJ0 AJ0AI0 AI0AH0 AH0AG0 AG0AF0 AF0AE0 AE0AD0 AD0AC0 AC0AB0 AB0AB1 AB1AA1 AA1AA2 AA2AA3 AA3AA4 AA4AA5 AA5AA6"/>
    <routeDistribution id="east_in_dist_0">
        <route refId="east_in_0_straight" probability="0.50"/>
        <route refId="east_in_0_turn_a" probability="0.25"/>
        <route refId="east_in_0_turn_b" probability="0.25"/>
    </routeDistribution>
    <flow id="east_in_flow_0" type="civilian" route="east_in_dist_0" begin="0" end="3600" vehsPerHour="240" departLane="best" departSpeed="max"/>
    <route id="east_in_1_straight" edges="BB1BA1 BA1AZ1 AZ1AY1 AY1AX1 AX1AW1 AW1AV1 AV1AU1 AU1AT1 AT1AS1 AS1AR1 AR1AQ1 AQ1AP1 AP1AO1 AO1AN1 AN1AM1 AM1AL1 AL1AK1 AK1AJ1 AJ1AI1 AI1AH1 AH1AG1 AG1AF1 AF1AE1 AE1AD1 AD1AC1 AC1AB1 AB1AA1"/>
    <route id="east_in_1_turn_a" edges="BB1BA1 BA1AZ1 AZ1AY1 AY1AX1 AX1AW1 AW1AV1 AV1AU1 AU1AT1 AT1AS1 AS1AR1 AR1AQ1 AQ1AP1 AP1AO1 AO1AN1 AN1AM1 AM1AL1 AL1AK1 AK1AJ1 AJ1AI1 AI1AH1 AH1AG1 AG1AF1 AF1AE1 AE1AD1 AD1AC1 AC1AC0"/>
    <route id="east_in_1_turn_b" edges="BB1BA1 BA1AZ1 AZ1AY1 AY1AX1 AX1AW1 AW1AV1 AV1AU1 AU1AT1 AT1AS1 AS1AR1 AR1AQ1 AQ1AP1 AP1AO1 AO1AN1 AN1AM1 AM1AL1 AL1AK1 AK1AJ1 AJ1AI1 AI1AH1 AH1AG1 AG1AF1 AF1AE1 AE1AD1 AD1AC1 AC1AB1 AB1AB2 AB2AB3 AB3AB4 AB4AB5 AB5AB6"/>
    <routeDistribution id="east_in_dist_1">
        <route refId="east_in_1_straight" probability="0.50"/>
        <route refId="east_in_1_turn_a" probability="0.25"/>
        <route refId="east_in_1_turn_b" probability="0.25"/>
    </routeDistribution>
    <flow id="east_in_flow_1" type="civilian" route="east_in_dist_1" begin="0" end="3600" vehsPerHour="240" departLane="best" departSpeed="max"/>
    <route id="east_in_2_straight" edges="BB2BA2 BA2AZ2 AZ2AY2 AY2AX2 AX2AW2 AW2AV2 AV2AU2 AU2AT2 AT2AS2 AS2AR2 AR2AQ2 AQ2AP2 AP2AO2 AO2AN2 AN2AM2 AM2AL2 AL2AK2 AK2AJ2 AJ2AI2 AI2AH2 AH2AG2 AG2AF2 AF2AE2 AE2AD2 AD2AC2 AC2AB2 AB2AA2"/>
    <route id="east_in_2_turn_a" edges="BB2BA2 BA2AZ2 AZ2AY2 AY2AX2 AX2AW2 AW2AV2 AV2AU2 AU2AT2 AT2AS2 AS2AR2 AR2AQ2 AQ2AP2 AP2AO2 AO2AN2 AN2AM2 AM2AL2 AL2AK2 AK2AJ2 AJ2AI2 AI2AH2 AH2AG2 AG2AF2 AF2AE2 AE2AD2 AD2AD1 AD1AD0"/>
    <route id="east_in_2_turn_b" edges="BB2BA2 BA2AZ2 AZ2AY2 AY2AX2 AX2AW2 AW2AV2 AV2AU2 AU2AT2 AT2AS2 AS2AR2 AR2AQ2 AQ2AP2 AP2AO2 AO2AN2 AN2AM2 AM2AL2 AL2AK2 AK2AJ2 AJ2AI2 AI2AH2 AH2AG2 AG2AF2 AF2AE2 AE2AD2 AD2AC2 AC2AC3 AC3AC4 AC4AC5 AC5AC6"/>
    <routeDistribution id="east_in_dist_2">
        <route refId="east_in_2_straight" probability="0.50"/>
        <route refId="east_in_2_turn_a" probability="0.25"/>
        <route refId="east_in_2_turn_b" probability="0.25"/>
    </routeDistribution>
    <flow id="east_in_flow_2" type="civilian" route="east_in_dist_2" begin="0" end="3600" vehsPerHour="240" departLane="best" departSpeed="max"/>
    <route id="east_in_3_straight" edges="BB3BA3 BA3AZ3 AZ3AY3 AY3AX3 AX3AW3 AW3AV3 AV3AU3 AU3AT3 AT3AS3 AS3AR3 AR3AQ3 AQ3AP3 AP3AO3 AO3AN3 AN3AM3 AM3AL3 AL3AK3 AK3AJ3 AJ3AI3 AI3AH3 AH3AG3 AG3AF3 AF3AE3 AE3AD3 AD3AC3 AC3AB3 AB3AA3"/>
    <route id="east_in_3_turn_a" edges="BB3BA3 BA3AZ3 AZ3AY3 AY3AX3 AX3AW3 AW3AV3 AV3AU3 AU3AT3 AT3AS3 AS3AR3 AR3AQ3 AQ3AP3 AP3AO3 AO3AN3 AN3AM3 AM3AL3 AL3AK3 AK3AJ3 AJ3AI3 AI3AH3 AH3AG3 AG3AF3 AF3AE3 AE3AE2 AE2AE1 AE1AE0"/>
    <route id="east_in_3_turn_b" edges="BB3BA3 BA3AZ3 AZ3AY3 AY3AX3 AX3AW3 AW3AV3 AV3AU3 AU3AT3 AT3AS3 AS3AR3 AR3AQ3 AQ3AP3 AP3AO3 AO3AN3 AN3AM3 AM3AL3 AL3AK3 AK3AJ3 AJ3AI3 AI3AH3 AH3AG3 AG3AF3 AF3AE3 AE3AD3 AD3AD4 AD4AD5 AD5AD6"/>
    <routeDistribution id="east_in_dist_3">
        <route refId="east_in_3_straight" probability="0.50"/>
        <route refId="east_in_3_turn_a" probability="0.25"/>
        <route refId="east_in_3_turn_b" probability="0.25"/>
    </routeDistribution>
    <flow id="east_in_flow_3" type="civilian" route="east_in_dist_3" begin="0" end="3600" vehsPerHour="240" departLane="best" departSpeed="max"/>
    <route id="east_in_4_straight" edges="BB4BA4 BA4AZ4 AZ4AY4 AY4AX4 AX4AW4 AW4AV4 AV4AU4 AU4AT4 AT4AS4 AS4AR4 AR4AQ4 AQ4AP4 AP4AO4 AO4AN4 AN4AM4 AM4AL4 AL4AK4 AK4AJ4 AJ4AI4 AI4AH4 AH4AG4 AG4AF4 AF4AE4 AE4AD4 AD4AC4 AC4AB4 AB4AA4"/>
    <route id="east_in_4_turn_a" edges="BB4BA4 BA4AZ4 AZ4AY4 AY4AX4 AX4AW4 AW4AV4 AV4AU4 AU4AT4 AT4AS4 AS4AR4 AR4AQ4 AQ4AP4 AP4AO4 AO4AN4 AN4AM4 AM4AL4 AL4AK4 AK4AJ4 AJ4AI4 AI4AH4 AH4AG4 AG4AF4 AF4AF3 AF3AF2 AF2AF1 AF1AF0"/>
    <route id="east_in_4_turn_b" edges="BB4BA4 BA4AZ4 AZ4AY4 AY4AX4 AX4AW4 AW4AV4 AV4AU4 AU4AT4 AT4AS4 AS4AR4 AR4AQ4 AQ4AP4 AP4AO4 AO4AN4 AN4AM4 AM4AL4 AL4AK4 AK4AJ4 AJ4AI4 AI4AH4 AH4AG4 AG4AF4 AF4AE4 AE4AE5 AE5AE6"/>
    <routeDistribution id="east_in_dist_4">
        <route refId="east_in_4_straight" probability="0.50"/>
        <route refId="east_in_4_turn_a" probability="0.25"/>
        <route refId="east_in_4_turn_b" probability="0.25"/>
    </routeDistribution>
    <flow id="east_in_flow_4" type="civilian" route="east_in_dist_4" begin="0" end="3600" vehsPerHour="240" departLane="best" departSpeed="max"/>
    <route id="east_in_5_straight" edges="BB5BA5 BA5AZ5 AZ5AY5 AY5AX5 AX5AW5 AW5AV5 AV5AU5 AU5AT5 AT5AS5 AS5AR5 AR5AQ5 AQ5AP5 AP5AO5 AO5AN5 AN5AM5 AM5AL5 AL5AK5 AK5AJ5 AJ5AI5 AI5AH5 AH5AG5 AG5AF5 AF5AE5 AE5AD5 AD5AC5 AC5AB5 AB5AA5"/>
    <route id="east_in_5_turn_a" edges="BB5BA5 BA5AZ5 AZ5AY5 AY5AX5 AX5AW5 AW5AV5 AV5AU5 AU5AT5 AT5AS5 AS5AR5 AR5AQ5 AQ5AP5 AP5AO5 AO5AN5 AN5AM5 AM5AL5 AL5AK5 AK5AJ5 AJ5AI5 AI5AH5 AH5AG5 AG5AG4 AG4AG3 AG3AG2 AG2AG1 AG1AG0"/>
    <route id="east_in_5_turn_b" edges="BB5BA5 BA5AZ5 AZ5AY5 AY5AX5 AX5AW5 AW5AV5 AV5AU5 AU5AT5 AT5AS5 AS5AR5 AR5AQ5 AQ5AP5 AP5AO5 AO5AN5 AN5AM5 AM5AL5 AL5AK5 AK5AJ5 AJ5AI5 AI5AH5 AH5AG5 AG5AF5 AF5AF6"/>
    <routeDistribution id="east_in_dist_5">
        <route refId="east_in_5_straight" probability="0.50"/>
        <route refId="east_in_5_turn_a" probability="0.25"/>
        <route refId="east_in_5_turn_b" probability="0.25"/>
    </routeDistribution>
    <flow id="east_in_flow_5" type="civilian" route="east_in_dist_5" begin="0" end="3600" vehsPerHour="240" departLane="best" departSpeed="max"/>
    <route id="east_in_6_straight" edges="BB6BA6 BA6AZ6 AZ6AY6 AY6AX6 AX6AW6 AW6AV6 AV6AU6 AU6AT6 AT6AS6 AS6AR6 AR6AQ6 AQ6AP6 AP6AO6 AO6AN6 AN6AM6 AM6AL6 AL6AK6 AK6AJ6 AJ6AI6 AI6AH6 AH6AG6 AG6AF6 AF6AE6 AE6AD6 AD6AC6 AC6AB6 AB6AA6"/>
    <route id="east_in_6_turn_a" edges="BB6BA6 BA6AZ6 AZ6AY6 AY6AX6 AX6AW6 AW6AV6 AV6AU6 AU6AT6 AT6AS6 AS6AR6 AR6AQ6 AQ6AP6 AP6AO6 AO6AN6 AN6AM6 AM6AL6 AL6AK6 AK6AJ6 AJ6AI6 AI6AH6 AH6AH5 AH5AH4 AH4AH3 AH3AH2 AH2AH1 AH1AH0"/>
    <route id="east_in_6_turn_b" edges="BB6BA6 BA6AZ6 AZ6AY6 AY6AX6 AX6AW6 AW6AV6 AV6AU6 AU6AT6 AT6AS6 AS6AR6 AR6AQ6 AQ6AP6 AP6AO6 AO6AN6 AN6AM6 AM6AL6 AL6AK6 AK6AJ6 AJ6AI6 AI6AH6 AH6AH5 AH5AG5 AG5AG6"/>
    <routeDistribution id="east_in_dist_6">
        <route refId="east_in_6_straight" probability="0.50"/>
        <route refId="east_in_6_turn_a" probability="0.25"/>
        <route refId="east_in_6_turn_b" probability="0.25"/>
    </routeDistribution>
    <flow id="east_in_flow_6" type="civilian" route="east_in_dist_6" begin="0" end="3600" vehsPerHour="240" departLane="best" departSpeed="max"/>
    <route id="south_in_0_straight" edges="AA0AA1 AA1AA2 AA2AA3 AA3AA4 AA4AA5 AA5AA6"/>
    <route id="south_in_0_turn_a" edges="AA0AA1 AA1AB1 AB1AC1 AC1AD1 AD1AE1 AE1AF1 AF1AG1 AG1AH1 AH1AI1 AI1AJ1 AJ1AK1 AK1AL1 AL1AM1 AM1AN1 AN1AO1 AO1AP1 AP1AQ1 AQ1AR1 AR1AS1 AS1AT1 AT1AU1 AU1AV1 AV1AW1 AW1AX1 AX1AY1 AY1AZ1 AZ1BA1 BA1BB1"/>
    <route id="south_in_0_turn_b" edges="AA0AA1 AA1AB1 AB1AB0 AB0AA0"/>
    <routeDistribution id="south_in_dist_0">
        <route refId="south_in_0_straight" probability="0.50"/>
        <route refId="south_in_0_turn_a" probability="0.25"/>
        <route refId="south_in_0_turn_b" probability="0.25"/>
    </routeDistribution>
    <flow id="south_in_flow_0" type="civilian" route="south_in_dist_0" begin="0" end="3600" vehsPerHour="240" departLane="best" departSpeed="max"/>
    <route id="south_in_1_straight" edges="AB0AB1 AB1AB2 AB2AB3 AB3AB4 AB4AB5 AB5AB6"/>
    <route id="south_in_1_turn_a" edges="AB0AB1 AB1AB2 AB2AC2 AC2AD2 AD2AE2 AE2AF2 AF2AG2 AG2AH2 AH2AI2 AI2AJ2 AJ2AK2 AK2AL2 AL2AM2 AM2AN2 AN2AO2 AO2AP2 AP2AQ2 AQ2AR2 AR2AS2 AS2AT2 AT2AU2 AU2AV2 AV2AW2 AW2AX2 AX2AY2 AY2AZ2 AZ2BA2 BA2BB2"/>
    <route id="south_in_1_turn_b" edges="AB0AB1 AB1AA1"/>
    <routeDistribution id="south_in_dist_1">
        <route refId="south_in_1_straight" probability="0.50"/>
        <route refId="south_in_1_turn_a" probability="0.25"/>
        <route refId="south_in_1_turn_b" probability="0.25"/>
    </routeDistribution>
    <flow id="south_in_flow_1" type="civilian" route="south_in_dist_1" begin="0" end="3600" vehsPerHour="240" departLane="best" departSpeed="max"/>
    <route id="south_in_2_straight" edges="AC0AC1 AC1AC2 AC2AC3 AC3AC4 AC4AC5 AC5AC6"/>
    <route id="south_in_2_turn_a" edges="AC0AC1 AC1AC2 AC2AC3 AC3AD3 AD3AE3 AE3AF3 AF3AG3 AG3AH3 AH3AI3 AI3AJ3 AJ3AK3 AK3AL3 AL3AM3 AM3AN3 AN3AO3 AO3AP3 AP3AQ3 AQ3AR3 AR3AS3 AS3AT3 AT3AU3 AU3AV3 AV3AW3 AW3AX3 AX3AY3 AY3AZ3 AZ3BA3 BA3BB3"/>
    <route id="south_in_2_turn_b" edges="AC0AC1 AC1AB1 AB1AB2 AB2AA2"/>
    <routeDistribution id="south_in_dist_2">
        <route refId="south_in_2_straight" probability="0.50"/>
        <route refId="south_in_2_turn_a" probability="0.25"/>
        <route refId="south_in_2_turn_b" probability="0.25"/>
    </routeDistribution>
    <flow id="south_in_flow_2" type="civilian" route="south_in_dist_2" begin="0" end="3600" vehsPerHour="240" departLane="best" departSpeed="max"/>
    <route id="south_in_3_straight" edges="AD0AD1 AD1AD2 AD2AD3 AD3AD4 AD4AD5 AD5AD6"/>
    <route id="south_in_3_turn_a" edges="AD0AD1 AD1AD2 AD2AD3 AD3AD4 AD4AE4 AE4AF4 AF4AG4 AG4AH4 AH4AI4 AI4AJ4 AJ4AK4 AK4AL4 AL4AM4 AM4AN4 AN4AO4 AO4AP4 AP4AQ4 AQ4AR4 AR4AS4 AS4AT4 AT4AU4 AU4AV4 AV4AW4 AW4AX4 AX4AY4 AY4AZ4 AZ4BA4 BA4BB4"/>
    <route id="south_in_3_turn_b" edges="AD0AD1 AD1AC1 AC1AB1 AB1AB2 AB2AB3 AB3AA3"/>
    <routeDistribution id="south_in_dist_3">
        <route refId="south_in_3_straight" probability="0.50"/>
        <route refId="south_in_3_turn_a" probability="0.25"/>
        <route refId="south_in_3_turn_b" probability="0.25"/>
    </routeDistribution>
    <flow id="south_in_flow_3" type="civilian" route="south_in_dist_3" begin="0" end="3600" vehsPerHour="240" departLane="best" departSpeed="max"/>
    <route id="south_in_4_straight" edges="AE0AE1 AE1AE2 AE2AE3 AE3AE4 AE4AE5 AE5AE6"/>
    <route id="south_in_4_turn_a" edges="AE0AE1 AE1AE2 AE2AE3 AE3AE4 AE4AE5 AE5AF5 AF5AG5 AG5AH5 AH5AI5 AI5AJ5 AJ5AK5 AK5AL5 AL5AM5 AM5AN5 AN5AO5 AO5AP5 AP5AQ5 AQ5AR5 AR5AS5 AS5AT5 AT5AU5 AU5AV5 AV5AW5 AW5AX5 AX5AY5 AY5AZ5 AZ5BA5 BA5BB5"/>
    <route id="south_in_4_turn_b" edges="AE0AE1 AE1AD1 AD1AC1 AC1AB1 AB1AB2 AB2AB3 AB3AB4 AB4AA4"/>
    <routeDistribution id="south_in_dist_4">
        <route refId="south_in_4_straight" probability="0.50"/>
        <route refId="south_in_4_turn_a" probability="0.25"/>
        <route refId="south_in_4_turn_b" probability="0.25"/>
    </routeDistribution>
    <flow id="south_in_flow_4" type="civilian" route="south_in_dist_4" begin="0" end="3600" vehsPerHour="240" departLane="best" departSpeed="max"/>
    <route id="south_in_5_straight" edges="AF0AF1 AF1AF2 AF2AF3 AF3AF4 AF4AF5 AF5AF6"/>
    <route id="south_in_5_turn_a" edges="AF0AF1 AF1AF2 AF2AF3 AF3AF4 AF4AF5 AF5AF6 AF6AG6 AG6AH6 AH6AI6 AI6AJ6 AJ6AK6 AK6AL6 AL6AM6 AM6AN6 AN6AO6 AO6AP6 AP6AQ6 AQ6AR6 AR6AS6 AS6AT6 AT6AU6 AU6AV6 AV6AW6 AW6AX6 AX6AY6 AY6AZ6 AZ6BA6 BA6BB6"/>
    <route id="south_in_5_turn_b" edges="AF0AF1 AF1AE1 AE1AD1 AD1AC1 AC1AB1 AB1AB2 AB2AB3 AB3AB4 AB4AB5 AB5AA5"/>
    <routeDistribution id="south_in_dist_5">
        <route refId="south_in_5_straight" probability="0.50"/>
        <route refId="south_in_5_turn_a" probability="0.25"/>
        <route refId="south_in_5_turn_b" probability="0.25"/>
    </routeDistribution>
    <flow id="south_in_flow_5" type="civilian" route="south_in_dist_5" begin="0" end="3600" vehsPerHour="240" departLane="best" departSpeed="max"/>
    <route id="south_in_6_straight" edges="AG0AG1 AG1AG2 AG2AG3 AG3AG4 AG4AG5 AG5AG6"/>
    <route id="south_in_6_turn_a" edges="AG0AG1 AG1AG2 AG2AG3 AG3AG4 AG4AG5 AG5AG6 AG6AH6 AH6AI6 AI6AJ6 AJ6AK6 AK6AL6 AL6AM6 AM6AN6 AN6AO6 AO6AP6 AP6AQ6 AQ6AR6 AR6AS6 AS6AT6 AT6AU6 AU6AV6 AV6AW6 AW6AX6 AX6AY6 AY6AZ6 AZ6BA6 BA6BB6"/>
    <route id="south_in_6_turn_b" edges="AG0AG1 AG1AF1 AF1AE1 AE1AD1 AD1AC1 AC1AB1 AB1AB2 AB2AB3 AB3AB4 AB4AB5 AB5AB6 AB6AA6"/>
    <routeDistribution id="south_in_dist_6">
        <route refId="south_in_6_straight" probability="0.50"/>
        <route refId="south_in_6_turn_a" probability="0.25"/>
        <route refId="south_in_6_turn_b" probability="0.25"/>
    </routeDistribution>
    <flow id="south_in_flow_6" type="civilian" route="south_in_dist_6" begin="0" end="3600" vehsPerHour="240" departLane="best" departSpeed="max"/>
    <route id="south_in_7_straight" edges="AH0AH1 AH1AH2 AH2AH3 AH3AH4 AH4AH5 AH5AH6"/>
    <route id="south_in_7_turn_a" edges="AH0AH1 AH1AH2 AH2AH3 AH3AH4 AH4AH5 AH5AH6 AH6AI6 AI6AJ6 AJ6AK6 AK6AL6 AL6AM6 AM6AN6 AN6AO6 AO6AP6 AP6AQ6 AQ6AR6 AR6AS6 AS6AT6 AT6AU6 AU6AV6 AV6AW6 AW6AX6 AX6AY6 AY6AZ6 AZ6BA6 BA6BB6"/>
    <route id="south_in_7_turn_b" edges="AH0AH1 AH1AG1 AG1AF1 AF1AE1 AE1AD1 AD1AC1 AC1AB1 AB1AB2 AB2AB3 AB3AB4 AB4AB5 AB5AB6 AB6AA6"/>
    <routeDistribution id="south_in_dist_7">
        <route refId="south_in_7_straight" probability="0.50"/>
        <route refId="south_in_7_turn_a" probability="0.25"/>
        <route refId="south_in_7_turn_b" probability="0.25"/>
    </routeDistribution>
    <flow id="south_in_flow_7" type="civilian" route="south_in_dist_7" begin="0" end="3600" vehsPerHour="240" departLane="best" departSpeed="max"/>
    <route id="south_in_8_straight" edges="AI0AI1 AI1AI2 AI2AI3 AI3AI4 AI4AI5 AI5AI6"/>
    <route id="south_in_8_turn_a" edges="AI0AI1 AI1AI2 AI2AI3 AI3AI4 AI4AI5 AI5AI6 AI6AJ6 AJ6AK6 AK6AL6 AL6AM6 AM6AN6 AN6AO6 AO6AP6 AP6AQ6 AQ6AR6 AR6AS6 AS6AT6 AT6AU6 AU6AV6 AV6AW6 AW6AX6 AX6AY6 AY6AZ6 AZ6BA6 BA6BB6"/>
    <route id="south_in_8_turn_b" edges="AI0AI1 AI1AH1 AH1AG1 AG1AF1 AF1AE1 AE1AD1 AD1AC1 AC1AB1 AB1AB2 AB2AB3 AB3AB4 AB4AB5 AB5AB6 AB6AA6"/>
    <routeDistribution id="south_in_dist_8">
        <route refId="south_in_8_straight" probability="0.50"/>
        <route refId="south_in_8_turn_a" probability="0.25"/>
        <route refId="south_in_8_turn_b" probability="0.25"/>
    </routeDistribution>
    <flow id="south_in_flow_8" type="civilian" route="south_in_dist_8" begin="0" end="3600" vehsPerHour="240" departLane="best" departSpeed="max"/>
    <route id="south_in_9_straight" edges="AJ0AJ1 AJ1AJ2 AJ2AJ3 AJ3AJ4 AJ4AJ5 AJ5AJ6"/>
    <route id="south_in_9_turn_a" edges="AJ0AJ1 AJ1AJ2 AJ2AJ3 AJ3AJ4 AJ4AJ5 AJ5AJ6 AJ6AK6 AK6AL6 AL6AM6 AM6AN6 AN6AO6 AO6AP6 AP6AQ6 AQ6AR6 AR6AS6 AS6AT6 AT6AU6 AU6AV6 AV6AW6 AW6AX6 AX6AY6 AY6AZ6 AZ6BA6 BA6BB6"/>
    <route id="south_in_9_turn_b" edges="AJ0AJ1 AJ1AI1 AI1AH1 AH1AG1 AG1AF1 AF1AE1 AE1AD1 AD1AC1 AC1AB1 AB1AB2 AB2AB3 AB3AB4 AB4AB5 AB5AB6 AB6AA6"/>
    <routeDistribution id="south_in_dist_9">
        <route refId="south_in_9_straight" probability="0.50"/>
        <route refId="south_in_9_turn_a" probability="0.25"/>
        <route refId="south_in_9_turn_b" probability="0.25"/>
    </routeDistribution>
    <flow id="south_in_flow_9" type="civilian" route="south_in_dist_9" begin="0" end="3600" vehsPerHour="240" departLane="best" departSpeed="max"/>
    <route id="south_in_10_straight" edges="AK0AK1 AK1AK2 AK2AK3 AK3AK4 AK4AK5 AK5AK6"/>
    <route id="south_in_10_turn_a" edges="AK0AK1 AK1AK2 AK2AK3 AK3AK4 AK4AK5 AK5AK6 AK6AL6 AL6AM6 AM6AN6 AN6AO6 AO6AP6 AP6AQ6 AQ6AR6 AR6AS6 AS6AT6 AT6AU6 AU6AV6 AV6AW6 AW6AX6 AX6AY6 AY6AZ6 AZ6BA6 BA6BB6"/>
    <route id="south_in_10_turn_b" edges="AK0AK1 AK1AJ1 AJ1AI1 AI1AH1 AH1AG1 AG1AF1 AF1AE1 AE1AD1 AD1AC1 AC1AB1 AB1AB2 AB2AB3 AB3AB4 AB4AB5 AB5AB6 AB6AA6"/>
    <routeDistribution id="south_in_dist_10">
        <route refId="south_in_10_straight" probability="0.50"/>
        <route refId="south_in_10_turn_a" probability="0.25"/>
        <route refId="south_in_10_turn_b" probability="0.25"/>
    </routeDistribution>
    <flow id="south_in_flow_10" type="civilian" route="south_in_dist_10" begin="0" end="3600" vehsPerHour="240" departLane="best" departSpeed="max"/>
    <route id="south_in_11_straight" edges="AL0AL1 AL1AL2 AL2AL3 AL3AL4 AL4AL5 AL5AL6"/>
    <route id="south_in_11_turn_a" edges="AL0AL1 AL1AL2 AL2AL3 AL3AL4 AL4AL5 AL5AL6 AL6AM6 AM6AN6 AN6AO6 AO6AP6 AP6AQ6 AQ6AR6 AR6AS6 AS6AT6 AT6AU6 AU6AV6 AV6AW6 AW6AX6 AX6AY6 AY6AZ6 AZ6BA6 BA6BB6"/>
    <route id="south_in_11_turn_b" edges="AL0AL1 AL1AK1 AK1AJ1 AJ1AI1 AI1AH1 AH1AG1 AG1AF1 AF1AE1 AE1AD1 AD1AC1 AC1AB1 AB1AB2 AB2AB3 AB3AB4 AB4AB5 AB5AB6 AB6AA6"/>
    <routeDistribution id="south_in_dist_11">
        <route refId="south_in_11_straight" probability="0.50"/>
        <route refId="south_in_11_turn_a" probability="0.25"/>
        <route refId="south_in_11_turn_b" probability="0.25"/>
    </routeDistribution>
    <flow id="south_in_flow_11" type="civilian" route="south_in_dist_11" begin="0" end="3600" vehsPerHour="240" departLane="best" departSpeed="max"/>
    <route id="south_in_12_straight" edges="AM0AM1 AM1AM2 AM2AM3 AM3AM4 AM4AM5 AM5AM6"/>
    <route id="south_in_12_turn_a" edges="AM0AM1 AM1AM2 AM2AM3 AM3AM4 AM4AM5 AM5AM6 AM6AN6 AN6AO6 AO6AP6 AP6AQ6 AQ6AR6 AR6AS6 AS6AT6 AT6AU6 AU6AV6 AV6AW6 AW6AX6 AX6AY6 AY6AZ6 AZ6BA6 BA6BB6"/>
    <route id="south_in_12_turn_b" edges="AM0AM1 AM1AL1 AL1AK1 AK1AJ1 AJ1AI1 AI1AH1 AH1AG1 AG1AF1 AF1AE1 AE1AD1 AD1AC1 AC1AB1 AB1AB2 AB2AB3 AB3AB4 AB4AB5 AB5AB6 AB6AA6"/>
    <routeDistribution id="south_in_dist_12">
        <route refId="south_in_12_straight" probability="0.50"/>
        <route refId="south_in_12_turn_a" probability="0.25"/>
        <route refId="south_in_12_turn_b" probability="0.25"/>
    </routeDistribution>
    <flow id="south_in_flow_12" type="civilian" route="south_in_dist_12" begin="0" end="3600" vehsPerHour="240" departLane="best" departSpeed="max"/>
    <route id="south_in_13_straight" edges="AN0AN1 AN1AN2 AN2AN3 AN3AN4 AN4AN5 AN5AN6"/>
    <route id="south_in_13_turn_a" edges="AN0AN1 AN1AN2 AN2AN3 AN3AN4 AN4AN5 AN5AN6 AN6AO6 AO6AP6 AP6AQ6 AQ6AR6 AR6AS6 AS6AT6 AT6AU6 AU6AV6 AV6AW6 AW6AX6 AX6AY6 AY6AZ6 AZ6BA6 BA6BB6"/>
    <route id="south_in_13_turn_b" edges="AN0AN1 AN1AM1 AM1AL1 AL1AK1 AK1AJ1 AJ1AI1 AI1AH1 AH1AG1 AG1AF1 AF1AE1 AE1AD1 AD1AC1 AC1AB1 AB1AB2 AB2AB3 AB3AB4 AB4AB5 AB5AB6 AB6AA6"/>
    <routeDistribution id="south_in_dist_13">
        <route refId="south_in_13_straight" probability="0.50"/>
        <route refId="south_in_13_turn_a" probability="0.25"/>
        <route refId="south_in_13_turn_b" probability="0.25"/>
    </routeDistribution>
    <flow id="south_in_flow_13" type="civilian" route="south_in_dist_13" begin="0" end="3600" vehsPerHour="240" departLane="best" departSpeed="max"/>
    <route id="south_in_14_straight" edges="AO0AO1 AO1AO2 AO2AO3 AO3AO4 AO4AO5 AO5AO6"/>
    <route id="south_in_14_turn_a" edges="AO0AO1 AO1AO2 AO2AO3 AO3AO4 AO4AO5 AO5AO6 AO6AP6 AP6AQ6 AQ6AR6 AR6AS6 AS6AT6 AT6AU6 AU6AV6 AV6AW6 AW6AX6 AX6AY6 AY6AZ6 AZ6BA6 BA6BB6"/>
    <route id="south_in_14_turn_b" edges="AO0AO1 AO1AN1 AN1AM1 AM1AL1 AL1AK1 AK1AJ1 AJ1AI1 AI1AH1 AH1AG1 AG1AF1 AF1AE1 AE1AD1 AD1AC1 AC1AB1 AB1AB2 AB2AB3 AB3AB4 AB4AB5 AB5AB6 AB6AA6"/>
    <routeDistribution id="south_in_dist_14">
        <route refId="south_in_14_straight" probability="0.50"/>
        <route refId="south_in_14_turn_a" probability="0.25"/>
        <route refId="south_in_14_turn_b" probability="0.25"/>
    </routeDistribution>
    <flow id="south_in_flow_14" type="civilian" route="south_in_dist_14" begin="0" end="3600" vehsPerHour="240" departLane="best" departSpeed="max"/>
    <route id="south_in_15_straight" edges="AP0AP1 AP1AP2 AP2AP3 AP3AP4 AP4AP5 AP5AP6"/>
    <route id="south_in_15_turn_a" edges="AP0AP1 AP1AP2 AP2AP3 AP3AP4 AP4AP5 AP5AP6 AP6AQ6 AQ6AR6 AR6AS6 AS6AT6 AT6AU6 AU6AV6 AV6AW6 AW6AX6 AX6AY6 AY6AZ6 AZ6BA6 BA6BB6"/>
    <route id="south_in_15_turn_b" edges="AP0AP1 AP1AO1 AO1AN1 AN1AM1 AM1AL1 AL1AK1 AK1AJ1 AJ1AI1 AI1AH1 AH1AG1 AG1AF1 AF1AE1 AE1AD1 AD1AC1 AC1AB1 AB1AB2 AB2AB3 AB3AB4 AB4AB5 AB5AB6 AB6AA6"/>
    <routeDistribution id="south_in_dist_15">
        <route refId="south_in_15_straight" probability="0.50"/>
        <route refId="south_in_15_turn_a" probability="0.25"/>
        <route refId="south_in_15_turn_b" probability="0.25"/>
    </routeDistribution>
    <flow id="south_in_flow_15" type="civilian" route="south_in_dist_15" begin="0" end="3600" vehsPerHour="240" departLane="best" departSpeed="max"/>
    <route id="south_in_16_straight" edges="AQ0AQ1 AQ1AQ2 AQ2AQ3 AQ3AQ4 AQ4AQ5 AQ5AQ6"/>
    <route id="south_in_16_turn_a" edges="AQ0AQ1 AQ1AQ2 AQ2AQ3 AQ3AQ4 AQ4AQ5 AQ5AQ6 AQ6AR6 AR6AS6 AS6AT6 AT6AU6 AU6AV6 AV6AW6 AW6AX6 AX6AY6 AY6AZ6 AZ6BA6 BA6BB6"/>
    <route id="south_in_16_turn_b" edges="AQ0AQ1 AQ1AP1 AP1AO1 AO1AN1 AN1AM1 AM1AL1 AL1AK1 AK1AJ1 AJ1AI1 AI1AH1 AH1AG1 AG1AF1 AF1AE1 AE1AD1 AD1AC1 AC1AB1 AB1AB2 AB2AB3 AB3AB4 AB4AB5 AB5AB6 AB6AA6"/>
    <routeDistribution id="south_in_dist_16">
        <route refId="south_in_16_straight" probability="0.50"/>
        <route refId="south_in_16_turn_a" probability="0.25"/>
        <route refId="south_in_16_turn_b" probability="0.25"/>
    </routeDistribution>
    <flow id="south_in_flow_16" type="civilian" route="south_in_dist_16" begin="0" end="3600" vehsPerHour="240" departLane="best" departSpeed="max"/>
    <route id="south_in_17_straight" edges="AR0AR1 AR1AR2 AR2AR3 AR3AR4 AR4AR5 AR5AR6"/>
    <route id="south_in_17_turn_a" edges="AR0AR1 AR1AR2 AR2AR3 AR3AR4 AR4AR5 AR5AR6 AR6AS6 AS6AT6 AT6AU6 AU6AV6 AV6AW6 AW6AX6 AX6AY6 AY6AZ6 AZ6BA6 BA6BB6"/>
    <route id="south_in_17_turn_b" edges="AR0AR1 AR1AQ1 AQ1AP1 AP1AO1 AO1AN1 AN1AM1 AM1AL1 AL1AK1 AK1AJ1 AJ1AI1 AI1AH1 AH1AG1 AG1AF1 AF1AE1 AE1AD1 AD1AC1 AC1AB1 AB1AB2 AB2AB3 AB3AB4 AB4AB5 AB5AB6 AB6AA6"/>
    <routeDistribution id="south_in_dist_17">
        <route refId="south_in_17_straight" probability="0.50"/>
        <route refId="south_in_17_turn_a" probability="0.25"/>
        <route refId="south_in_17_turn_b" probability="0.25"/>
    </routeDistribution>
    <flow id="south_in_flow_17" type="civilian" route="south_in_dist_17" begin="0" end="3600" vehsPerHour="240" departLane="best" departSpeed="max"/>
    <route id="south_in_18_straight" edges="AS0AS1 AS1AS2 AS2AS3 AS3AS4 AS4AS5 AS5AS6"/>
    <route id="south_in_18_turn_a" edges="AS0AS1 AS1AS2 AS2AS3 AS3AS4 AS4AS5 AS5AS6 AS6AT6 AT6AU6 AU6AV6 AV6AW6 AW6AX6 AX6AY6 AY6AZ6 AZ6BA6 BA6BB6"/>
    <route id="south_in_18_turn_b" edges="AS0AS1 AS1AR1 AR1AQ1 AQ1AP1 AP1AO1 AO1AN1 AN1AM1 AM1AL1 AL1AK1 AK1AJ1 AJ1AI1 AI1AH1 AH1AG1 AG1AF1 AF1AE1 AE1AD1 AD1AC1 AC1AB1 AB1AB2 AB2AB3 AB3AB4 AB4AB5 AB5AB6 AB6AA6"/>
    <routeDistribution id="south_in_dist_18">
        <route refId="south_in_18_straight" probability="0.50"/>
        <route refId="south_in_18_turn_a" probability="0.25"/>
        <route refId="south_in_18_turn_b" probability="0.25"/>
    </routeDistribution>
    <flow id="south_in_flow_18" type="civilian" route="south_in_dist_18" begin="0" end="3600" vehsPerHour="240" departLane="best" departSpeed="max"/>