<?xml version="1.0" encoding="UTF-8"?>

<!-- generated on 2026-07-19T17:01:09.035933+05:30 by Eclipse SUMO netgenerate 1.26.0
<netgenerateConfiguration xmlns:xsi="http://www.w3.org/2001/XMLSchema-instance" xsi:noNamespaceSchemaLocation="http://sumo.dlr.de/xsd/netgenerateConfiguration.xsd">

    <grid_network>
        <grid value="true"/>
        <grid.x-number value="6"/>
        <grid.y-number value="6"/>
        <grid.x-length value="200.0"/>
        <grid.y-length value="200.0"/>
    </grid_network>

    <output>
        <output-file value="C:\Users\sahan\Desktop\VS Code\RL\EV_BaseLine2 - MultiAgent\scenario\grid6x6_bidirectional\grid6x6_bidirectional.net.xml"/>
    </output>

    <building_defaults>
        <default.lanenumber value="2"/>
        <default-junction-type value="traffic_light"/>
    </building_defaults>

    <tls_building>
        <tls.green.time value="31"/>
        <tls.yellow.time value="4"/>
        <tls.allred.time value="2"/>
    </tls_building>

    <junctions>
        <no-turnarounds.tls value="true"/>
    </junctions>

</netgenerateConfiguration>
-->

<net version="1.20" junctionCornerDetail="5" limitTurnSpeed="5.50" xmlns:xsi="http://www.w3.org/2001/XMLSchema-instance" xsi:noNamespaceSchemaLocation="http://sumo.dlr.de/xsd/net_file.xsd">

    <location netOffset="0.00,0.00" convBoundary="0.00,0.00,1000.00,1000.00" origBoundary="0.00,0.00,1000.00,1000.00" projParameter="!"/>

    <edge id=":A0_0" function="internal">
        <lane id=":A0_0_0" index="0" speed="8.96" length="18.06" shape="-4.80,6.40 -4.10,1.50 -2.00,-2.00 1.50,-4.10 6.40,-4.80"/>
        <lane id=":A0_0_1" index="1" speed="7.66" length="12.90" shape="-1.60,6.40 -1.10,2.90 0.40,0.40 2.90,-1.10 6.40,-1.60"/>
    </edge>
    <edge id=":A0_2" function="internal">
        <lane id=":A0_2_0" index="0" speed="3.90" length="2.58" shape="6.40,4.80 5.70,4.90 5.20,5.20 4.90,5.70 4.80,6.40"/>
        <lane id=":A0_2_1" index="1" speed="6.08" length="7.74" shape="6.40,1.60 4.30,1.90 2.80,2.80 1.90,4.30 1.60,6.40"/>
    </edge>
    <edge id=":A1_0" function="internal">
        <lane id=":A1_0_0" index="0" speed="13.89" length="20.80" shape="-4.80,210.40 -4.80,189.60"/>
        <lane id=":A1_0_1" index="1" speed="13.89" length="20.80" shape="-1.60,210.40 -1.60,189.60"/>
    </edge>
    <edge id=":A1_2" function="internal">
        <lane id=":A1_2_0" index="0" speed="9.26" length="5.01" shape="-1.60,210.40 -0.89,205.44"/>
    </edge>
    <edge id=":A1_9" function="internal">
        <lane id=":A1_9_0" index="0" speed="9.26" length="14.34" shape="-0.89,205.44 -0.85,205.15 1.40,201.40 5.15,199.15 10.40,198.40"/>
    </edge>
    <edge id=":A1_3" function="internal">
        <lane id=":A1_3_0" index="0" speed="6.51" length="9.03" shape="10.40,204.80 7.95,205.15 6.20,206.20 5.15,207.95 4.80,210.40"/>
        <lane id=":A1_3_1" index="1" speed="8.00" length="14.19" shape="10.40,201.60 6.55,202.15 3.80,203.80 2.15,206.55 1.60,210.40"/>
    </edge>
    <edge id=":A1_5" function="internal">
        <lane id=":A1_5_0" index="0" speed="9.26" length="19.35" shape="10.40,201.60 5.15,200.85 1.40,198.60 -0.85,194.85 -1.60,189.60"/>
    </edge>
    <edge id=":A1_6" function="internal">
        <lane id=":A1_6_0" index="0" speed="6.51" length="9.03" shape="4.80,189.60 5.15,192.05 6.20,193.80 7.95,194.85 10.40,195.20"/>
    </edge>
    <edge id=":A1_7" function="internal">
        <lane id=":A1_7_0" index="0" speed="13.89" length="20.80" shape="4.80,189.60 4.80,210.40"/>
        <lane id=":A1_7_1" index="1" speed="13.89" length="20.80" shape="1.60,189.60 1.60,210.40"/>
    </edge>
    <edge id=":A2_0" function="internal">
        <lane id=":A2_0_0" index="0" speed="13.89" length="20.80" shape="-4.80,410.40 -4.80,389.60"/>
        <lane id=":A2_0_1" index="1" speed="13.89" length="20.80" shape="-1.60,410.40 -1.60,389.60"/>
    </edge>
    <edge id=":A2_2" function="internal">
        <lane id=":A2_2_0" index="0" speed="9.26" length="5.01" shape="-1.60,410.40 -0.89,405.44"/>
    </edge>
    <edge id=":A2_9" function="internal">
        <lane id=":A2_9_0" index="0" speed="9.26" length="14.34" shape="-0.89,405.44 -0.85,405.15 1.40,401.40 5.15,399.15 10.40,398.40"/>
    </edge>
    <edge id=":A2_3" function="internal">
        <lane id=":A2_3_0" index="0" speed="6.51" length="9.03" shape="10.40,404.80 7.95,405.15 6.20,406.20 5.15,407.95 4.80,410.40"/>
        <lane id=":A2_3_1" index="1" speed="8.00" length="14.19" shape="10.40,401.60 6.55,402.15 3.80,403.80 2.15,406.55 1.60,410.40"/>
    </edge>
    <edge id=":A2_5" function="internal">
        <lane id=":A2_5_0" index="0" speed="9.26" length="19.35" shape="10.40,401.60 5.15,400.85 1.40,398.60 -0.85,394.85 -1.60,389.60"/>
    </edge>
    <edge id=":A2_6" function="internal">
        <lane id=":A2_6_0" index="0" speed="6.51" length="9.03" shape="4.80,389.60 5.15,392.05 6.20,393.80 7.95,394.85 10.40,395.20"/>
    </edge>
    <edge id=":A2_7" function="internal">
        <lane id=":A2_7_0" index="0" speed="13.89" length="20.80" shape="4.80,389.60 4.80,410.40"/>
        <lane id=":A2_7_1" index="1" speed="13.89" length="20.80" shape="1.60,389.60 1.60,410.40"/>
    </edge>
    <edge id=":A3_0" function="internal">
        <lane id=":A3_0_0" index="0" speed="13.89" length="20.80" shape="-4.80,610.40 -4.80,589.60"/>
        <lane id=":A3_0_1" index="1" speed="13.89" length="20.80" shape="-1.60,610.40 -1.60,589.60"/>
    </edge>
    <edge id=":A3_2" function="internal">
        <lane id=":A3_2_0" index="0" speed="9.26" length="5.01" shape="-1.60,610.40 -0.89,605.44"/>
    </edge>
    <edge id=":A3_9" function="internal">
        <lane id=":A3_9_0" index="0" speed="9.26" length="14.34" shape="-0.89,605.44 -0.85,605.15 1.40,601.40 5.15,599.15 10.40,598.40"/>
    </edge>
    <edge id=":A3_3" function="internal">
        <lane id=":A3_3_0" index="0" speed="6.51" length="9.03" shape="10.40,604.80 7.95,605.15 6.20,606.20 5.15,607.95 4.80,610.40"/>
        <lane id=":A3_3_1" index="1" speed="8.00" length="14.19" shape="10.40,601.60 6.55,602.15 3.80,603.80 2.15,606.55 1.60,610.40"/>
    </edge>
    <edge id=":A3_5" function="internal">
        <lane id=":A3_5_0" index="0" speed="9.26" length="19.35" shape="10.40,601.60 5.15,600.85 1.40,598.60 -0.85,594.85 -1.60,589.60"/>
    </edge>
    <edge id=":A3_6" function="internal">
        <lane id=":A3_6_0" index="0" speed="6.51" length="9.03" shape="4.80,589.60 5.15,592.05 6.20,593.80 7.95,594.85 10.40,595.20"/>
    </edge>
    <edge id=":A3_7" function="internal">
        <lane id=":A3_7_0" index="0" speed="13.89" length="20.80" shape="4.80,589.60 4.80,610.40"/>
        <lane id=":A3_7_1" index="1" speed="13.89" length="20.80" shape="1.60,589.60 1.60,610.40"/>
    </edge>
    <edge id=":A4_0" function="internal">
        <lane id=":A4_0_0" index="0" speed="13.89" length="20.80" shape="-4.80,810.40 -4.80,789.60"/>
        <lane id=":A4_0_1" index="1" speed="13.89" length="20.80" shape="-1.60,810.40 -1.60,789.60"/>
    </edge>
    <edge id=":A4_2" function="internal">
        <lane id=":A4_2_0" index="0" speed="9.26" length="5.01" shape="-1.60,810.40 -0.89,805.44"/>
    </edge>
    <edge id=":A4_9" function="internal">
        <lane id=":A4_9_0" index="0" speed="9.26" length="14.34" shape="-0.89,805.44 -0.85,805.15 1.40,801.40 5.15,799.15 10.40,798.40"/>
    </edge>
    <edge id=":A4_3" function="internal">
        <lane id=":A4_3_0" index="0" speed="6.51" length="9.03" shape="10.40,804.80 7.95,805.15 6.20,806.20 5.15,807.95 4.80,810.40"/>
        <lane id=":A4_3_1" index="1" speed="8.00" length="14.19" shape="10.40,801.60 6.55,802.15 3.80,803.80 2.15,806.55 1.60,810.40"/>
    </edge>
    <edge id=":A4_5" function="internal">
        <lane id=":A4_5_0" index="0" speed="9.26" length="19.35" shape="10.40,801.60 5.15,800.85 1.40,798.60 -0.85,794.85 -1.60,789.60"/>
    </edge>
    <edge id=":A4_6" function="internal">
        <lane id=":A4_6_0" index="0" speed="6.51" length="9.03" shape="4.80,789.60 5.15,792.05 6.20,793.80 7.95,794.85 10.40,795.20"/>
    </edge>
    <edge id=":A4_7" function="internal">
        <lane id=":A4_7_0" index="0" speed="13.89" length="20.80" shape="4.80,789.60 4.80,810.40"/>
        <lane id=":A4_7_1" index="1" speed="13.89" length="20.80" shape="1.60,789.60 1.60,810.40"/>
    </edge>
    <edge id=":A5_0" function="internal">
        <lane id=":A5_0_0" index="0" speed="8.96" length="18.06" shape="6.40,1004.80 1.50,1004.10 -2.00,1002.00 -4.10,998.50 -4.80,993.60"/>
        <lane id=":A5_0_1" index="1" speed="7.66" length="12.90" shape="6.40,1001.60 2.90,1001.10 0.40,999.60 -1.10,997.10 -1.60,993.60"/>
    </edge>
    <edge id=":A5_2" function="internal">
        <lane id=":A5_2_0" index="0" speed="3.90" length="2.58" shape="4.80,993.60 4.90,994.30 5.20,994.80 5.70,995.10 6.40,995.20"/>
        <lane id=":A5_2_1" index="1" speed="6.08" length="7.74" shape="1.60,993.60 1.90,995.70 2.80,997.20 4.30,998.10 6.40,998.40"/>
    </edge>
    <edge id=":B0_0" function="internal">
        <lane id=":B0_0_0" index="0" speed="6.51" length="9.03" shape="195.20,10.40 194.85,7.95 193.80,6.20 192.05,5.15 189.60,4.80"/>
        <lane id=":B0_0_1" index="1" speed="8.00" length="14.19" shape="198.40,10.40 197.85,6.55 196.20,3.80 193.45,2.15 189.60,1.60"/>
    </edge>
    <edge id=":B0_2" function="internal">
        <lane id=":B0_2_0" index="0" speed="9.26" length="19.35" shape="198.40,10.40 199.15,5.15 201.40,1.40 205.15,-0.85 210.40,-1.60"/>
    </edge>
    <edge id=":B0_3" function="internal">
        <lane id=":B0_3_0" index="0" speed="6.51" length="9.03" shape="210.40,4.80 207.95,5.15 206.20,6.20 205.15,7.95 204.80,10.40"/>
    </edge>
    <edge id=":B0_4" function="internal">
        <lane id=":B0_4_0" index="0" speed="13.89" length="20.80" shape="210.40,4.80 189.60,4.80"/>
        <lane id=":B0_4_1" index="1" speed="13.89" length="20.80" shape="210.40,1.60 189.60,1.60"/>
    </edge>
    <edge id=":B0_6" function="internal">
        <lane id=":B0_6_0" index="0" speed="13.89" length="20.80" shape="189.60,-4.80 210.40,-4.80"/>
        <lane id=":B0_6_1" index="1" speed="13.89" length="20.80" shape="189.60,-1.60 210.40,-1.60"/>
    </edge>
    <edge id=":B0_8" function="internal">
        <lane id=":B0_8_0" index="0" speed="9.26" length="5.01" shape="189.60,-1.60 194.56,-0.89"/>
    </edge>
    <edge id=":B0_9" function="internal">
        <lane id=":B0_9_0" index="0" speed="9.26" length="14.34" shape="194.56,-0.89 194.85,-0.85 198.60,1.40 200.85,5.15 201.60,10.40"/>
    </edge>
    <edge id=":B1_0" function="internal">
        <lane id=":B1_0_0" index="0" speed="6.51" length="9.03" shape="195.20,210.40 194.85,207.95 193.80,206.20 192.05,205.15 189.60,204.80"/>
    </edge>
    <edge id=":B1_1" function="internal">
        <lane id=":B1_1_0" index="0" speed="13.89" length="20.80" shape="195.20,210.40 195.20,189.60"/>
        <lane id=":B1_1_1" index="1" speed="13.89" length="20.80" shape="198.40,210.40 198.40,189.60"/>
    </edge>
    <edge id=":B1_3" function="internal">
        <lane id=":B1_3_0" index="0" speed="9.26" length="5.01" shape="198.40,210.40 199.11,205.44"/>
    </edge>
    <edge id=":B1_16" function="internal">
        <lane id=":B1_16_0" index="0" speed="9.26" length="14.34" shape="199.11,205.44 199.15,205.15 201.40,201.40 205.15,199.15 210.40,198.40"/>
    </edge>
    <edge id=":B1_4" function="internal">
        <lane id=":B1_4_0" index="0" speed="6.51" length="9.03" shape="210.40,204.80 207.95,205.15 206.20,206.20 205.15,207.95 204.80,210.40"/>
    </edge>
    <edge id=":B1_5" function="internal">
        <lane id=":B1_5_0" index="0" speed="13.89" length="20.80" shape="210.40,204.80 189.60,204.80"/>
        <lane id=":B1_5_1" index="1" speed="13.89" length="20.80" shape="210.40,201.60 189.60,201.60"/>
    </edge>
    <edge id=":B1_7" function="internal">
        <lane id=":B1_7_0" index="0" speed="9.26" length="5.01" shape="210.40,201.60 205.44,200.89"/>
    </edge>
    <edge id=":B1_17" function="internal">
        <lane id=":B1_17_0" index="0" speed="9.26" length="14.34" shape="205.44,200.89 205.15,200.85 201.40,198.60 199.15,194.85 198.40,189.60"/>
    </edge>
    <edge id=":B1_8" function="internal">
        <lane id=":B1_8_0" index="0" speed="6.51" length="9.03" shape="204.80,189.60 205.15,192.05 206.20,193.80 207.95,194.85 210.40,195.20"/>
    </edge>
    <edge id=":B1_9" function="internal">
        <lane id=":B1_9_0" index="0" speed="13.89" length="20.80" shape="204.80,189.60 204.80,210.40"/>
        <lane id=":B1_9_1" index="1" speed="13.89" length="20.80" shape="201.60,189.60 201.60,210.40"/>
    </edge>
    <edge id=":B1_11" function="internal">
        <lane id=":B1_11_0" index="0" speed="9.26" length="5.01" shape="201.60,189.60 200.89,194.56"/>
    </edge>
    <edge id=":B1_18" function="internal">
        <lane id=":B1_18_0" index="0" speed="9.26" length="14.34" shape="200.89,194.56 200.85,194.85 198.60,198.60 194.85,200.85 189.60,201.60"/>
    </edge>
    <edge id=":B1_12" function="internal">
        <lane id=":B1_12_0" index="0" speed="6.51" length="9.03" shape="189.60,195.20 192.05,194.85 193.80,193.80 194.85,192.05 195.20,189.60"/>
    </edge>
    <edge id=":B1_13" function="internal">
        <lane id=":B1_13_0" index="0" speed="13.89" length="20.80" shape="189.60,195.20 210.40,195.20"/>
        <lane id=":B1_13_1" index="1" speed="13.89" length="20.80" shape="189.60,198.40 210.40,198.40"/>
    </edge>
    <edge id=":B1_15" function="internal">
        <lane id=":B1_15_0" index="0" speed="9.26" length="5.01" shape="189.60,198.40 194.56,199.11"/>
    </edge>
    <edge id=":B1_19" function="internal">
        <lane id=":B1_19_0" index="0" speed="9.26" length="14.34" shape="194.56,199.11 194.85,199.15 198.60,201.40 200.85,205.15 201.60,210.40"/>
    </edge>
    <edge id=":B2_0" function="internal">
        <lane id=":B2_0_0" index="0" speed="6.51" length="9.03" shape="195.20,410.40 194.85,407.95 193.80,406.20 192.05,405.15 189.60,404.80"/>
    </edge>
    <edge id=":B2_1" function="internal">
        <lane id=":B2_1_0" index="0" speed="13.89" length="20.80" shape="195.20,410.40 195.20,389.60"/>
        <lane id=":B2_1_1" index="1" speed="13.89" length="20.80" shape="198.40,410.40 198.40,389.60"/>
    </edge>
    <edge id=":B2_3" function="internal">
        <lane id=":B2_3_0" index="0" speed="9.26" length="5.01" shape="198.40,410.40 199.11,405.44"/>
    </edge>
    <edge id=":B2_16" function="internal">
        <lane id=":B2_16_0" index="0" speed="9.26" length="14.34" shape="199.11,405.44 199.15,405.15 201.40,401.40 205.15,399.15 210.40,398.40"/>
    </edge>
    <edge id=":B2_4" function="internal">
        <lane id=":B2_4_0" index="0" speed="6.51" length="9.03" shape="210.40,404.80 207.95,405.15 206.20,406.20 205.15,407.95 204.80,410.40"/>
    </edge>
    <edge id=":B2_5" function="internal">
        <lane id=":B2_5_0" index="0" speed="13.89" length="20.80" shape="210.40,404.80 189.60,404.80"/>
        <lane id=":B2_5_1" index="1" speed="13.89" length="20.80" shape="210.40,401.60 189.60,401.60"/>
    </edge>
    <edge id=":B2_7" function="internal">
        <lane id=":B2_7_0" index="0" speed="9.26" length="5.01" shape="210.40,401.60 205.44,400.89"/>
    </edge>
    <edge id=":B2_17" function="internal">
        <lane id=":B2_17_0" index="0" speed="9.26" length="14.34" shape="205.44,400.89 205.15,400.85 201.40,398.60 199.15,394.85 198.40,389.60"/>
    </edge>
    <edge id=":B2_8" function="internal">
        <lane id=":B2_8_0" index="0" speed="6.51" length="9.03" shape="204.80,389.60 205.15,392.05 206.20,393.80 207.95,394.85 210.40,395.20"/>
    </edge>
    <edge id=":B2_9" function="internal">
        <lane id=":B2_9_0" index="0" speed="13.89" length="20.80" shape="204.80,389.60 204.80,410.40"/>
        <lane id=":B2_9_1" index="1" speed="13.89" length="20.80" shape="201.60,389.60 201.60,410.40"/>
    </edge>
    <edge id=":B2_11" function="internal">
        <lane id=":B2_11_0" index="0" speed="9.26" length="5.01" shape="201.60,389.60 200.89,394.56"/>
    </edge>
    <edge id=":B2_18" function="internal">
        <lane id=":B2_18_0" index="0" speed="9.26" length="14.34" shape="200.89,394.56 200.85,394.85 198.60,398.60 194.85,400.85 189.60,401.60"/>
    </edge>
    <edge id=":B2_12" function="internal">
        <lane id=":B2_12_0" index="0" speed="6.51" length="9.03" shape="189.60,395.20 192.05,394.85 193.80,393.80 194.85,392.05 195.20,389.60"/>
    </edge>
    <edge id=":B2_13" function="internal">
        <lane id=":B2_13_0" index="0" speed="13.89" length="20.80" shape="189.60,395.20 210.40,395.20"/>
        <lane id=":B2_13_1" index="1" speed="13.89" length="20.80" shape="189.60,398.40 210.40,398.40"/>
    </edge>
    <edge id=":B2_15" function="internal">
        <lane id=":B2_15_0" index="0" speed="9.26" length="5.01" shape="189.60,398.40 194.56,399.11"/>
    </edge>
    <edge id=":B2_19" function="internal">
        <lane id=":B2_19_0" index="0" speed="9.26" length="14.34" shape="194.56,399.11 194.85,399.15 198.60,401.40 200.85,405.15 201.60,410.40"/>
    </edge>
    <edge id=":B3_0" function="internal">
        <lane id=":B3_0_0" index="0" speed="6.51" length="9.03" shape="195.20,610.40 194.85,607.95 193.80,606.20 192.05,605.15 189.60,604.80"/>
    </edge>
    <edge id=":B3_1" function="internal">
        <lane id=":B3_1_0" index="0" speed="13.89" length="20.80" shape="195.20,610.40 195.20,589.60"/>
        <lane id=":B3_1_1" index="1" speed="13.89" length="20.80" shape="198.40,610.40 198.40,589.60"/>
    </edge>
    <edge id=":B3_3" function="internal">
        <lane id=":B3_3_0" index="0" speed="9.26" length="5.01" shape="198.40,610.40 199.11,605.44"/>
    </edge>
    <edge id=":B3_16" function="internal">
        <lane id=":B3_16_0" index="0" speed="9.26" length="14.34" shape="199.11,605.44 199.15,605.15 201.40,601.40 205.15,599.15 210.40,598.40"/>
    </edge>
    <edge id=":B3_4" function="internal">
        <lane id=":B3_4_0" index="0" speed="6.51" length="9.03" shape="210.40,604.80 207.95,605.15 206.20,606.20 205.15,607.95 204.80,610.40"/>
    </edge>
    <edge id=":B3_5" function="internal">
        <lane id=":B3_5_0" index="0" speed="13.89" length="20.80" shape="210.40,604.80 189.60,604.80"/>
        <lane id=":B3_5_1" index="1" speed="13.89" length="20.80" shape="210.40,601.60 189.60,601.60"/>
    </edge>
    <edge id=":B3_7" function="internal">
        <lane id=":B3_7_0" index="0" speed="9.26" length="5.01" shape="210.40,601.60 205.44,600.89"/>
    </edge>
    <edge id=":B3_17" function="internal">
        <lane id=":B3_17_0" index="0" speed="9.26" length="14.34" shape="205.44,600.89 205.15,600.85 201.40,598.60 199.15,594.85 198.40,589.60"/>
    </edge>
    <edge id=":B3_8" function="internal">
        <lane id=":B3_8_0" index="0" speed="6.51" length="9.03" shape="204.80,589.60 205.15,592.05 206.20,593.80 207.95,594.85 210.40,595.20"/>
    </edge>
    <edge id=":B3_9" function="internal">
        <lane id=":B3_9_0" index="0" speed="13.89" length="20.80" shape="204.80,589.60 204.80,610.40"/>
        <lane id=":B3_9_1" index="1" speed="13.89" length="20.80" shape="201.60,589.60 201.60,610.40"/>
    </edge>
    <edge id=":B3_11" function="internal">
        <lane id=":B3_11_0" index="0" speed="9.26" length="5.01" shape="201.60,589.60 200.89,594.56"/>
    </edge>
    <edge id=":B3_18" function="internal">
        <lane id=":B3_18_0" index="0" speed="9.26" length="14.34" shape="200.89,594.56 200.85,594.85 198.60,598.60 194.85,600.85 189.60,601.60"/>
    </edge>
    <edge id=":B3_12" function="internal">
        <lane id=":B3_12_0" index="0" speed="6.51" length="9.03" shape="189.60,595.20 192.05,594.85 193.80,593.80 194.85,592.05 195.20,589.60"/>
    </edge>
    <edge id=":B3_13" function="internal">
        <lane id=":B3_13_0" index="0" speed="13.89" length="20.80" shape="189.60,595.20 210.40,595.20"/>
        <lane id=":B3_13_1" index="1" speed="13.89" length="20.80" shape="189.60,598.40 210.40,598.40"/>
    </edge>
    <edge id=":B3_15" function="internal">
        <lane id=":B3_15_0" index="0" speed="9.26" length="5.01" shape="189.60,598.40 194.56,599.11"/>
    </edge>
    <edge id=":B3_19" function="internal">
        <lane id=":B3_19_0" index="0" speed="9.26" length="14.34" shape="194.56,599.11 194.85,599.15 198.60,601.40 200.85,605.15 201.60,610.40"/>
    </edge>
    <edge id=":B4_0" function="internal">
        <lane id=":B4_0_0" index="0" speed="6.51" length="9.03" shape="195.20,810.40 194.85,807.95 193.80,806.20 192.05,805.15 189.60,804.80"/>
    </edge>
    <edge id=":B4_1" function="internal">
        <lane id=":B4_1_0" index="0" speed="13.89" length="20.80" shape="195.20,810.40 195.20,789.60"/>
        <lane id=":B4_1_1" index="1" speed="13.89" length="20.80" shape="198.40,810.40 198.40,789.60"/>
    </edge>
    <edge id=":B4_3" function="internal">
        <lane id=":B4_3_0" index="0" speed="9.26" length="5.01" shape="198.40,810.40 199.11,805.44"/>
    </edge>
    <edge id=":B4_16" function="internal">
        <lane id=":B4_16_0" index="0" speed="9.26" length="14.34" shape="199.11,805.44 199.15,805.15 201.40,801.40 205.15,799.15 210.40,798.40"/>
    </edge>
    <edge id=":B4_4" function="internal">
        <lane id=":B4_4_0" index="0" speed="6.51" length="9.03" shape="210.40,804.80 207.95,805.15 206.20,806.20 205.15,807.95 204.80,810.40"/>
    </edge>
    <edge id=":B4_5" function="internal">
        <lane id=":B4_5_0" index="0" speed="13.89" length="20.80" shape="210.40,804.80 189.60,804.80"/>
        <lane id=":B4_5_1" index="1" speed="13.89" length="20.80" shape="210.40,801.60 189.60,801.60"/>
    </edge>
    <edge id=":B4_7" function="internal">
        <lane id=":B4_7_0" index="0" speed="9.26" length="5.01" shape="210.40,801.60 205.44,800.89"/>
    </edge>
    <edge id=":B4_17" function="internal">
        <lane id=":B4_17_0" index="0" speed="9.26" length="14.34" shape="205.44,800.89 205.15,800.85 201.40,798.60 199.15,794.85 198.40,789.60"/>
    </edge>
    <edge id=":B4_8" function="internal">
        <lane id=":B4_8_0" index="0" speed="6.51" length="9.03" shape="204.80,789.60 205.15,792.05 206.20,793.80 207.95,794.85 210.40,795.20"/>
    </edge>
    <edge id=":B4_9" function="internal">
        <lane id=":B4_9_0" index="0" speed="13.89" length="20.80" shape="204.80,789.60 204.80,810.40"/>
        <lane id=":B4_9_1" index="1" speed="13.89" length="20.80" shape="201.60,789.60 201.60,810.40"/>
    </edge>
    <edge id=":B4_11" function="internal">
        <lane id=":B4_11_0" index="0" speed="9.26" length="5.01" shape="201.60,789.60 200.89,794.56"/>
    </edge>
    <edge id=":B4_18" function="internal">
        <lane id=":B4_18_0" index="0" speed="9.26" length="14.34" shape="200.89,794.56 200.85,794.85 198.60,798.60 194.85,800.85 189.60,801.60"/>
    </edge>
    <edge id=":B4_12" function="internal">
        <lane id=":B4_12_0" index="0" speed="6.51" length="9.03" shape="189.60,795.20 192.05,794.85 193.80,793.80 194.85,792.05 195.20,789.60"/>
    </edge>
    <edge id=":B4_13" function="internal">
        <lane id=":B4_13_0" index="0" speed="13.89" length="20.80" shape="189.60,795.20 210.40,795.20"/>
        <lane id=":B4_13_1" index="1" speed="13.89" length="20.80" shape="189.60,798.40 210.40,798.40"/>
    </edge>
    <edge id=":B4_15" function="internal">
        <lane id=":B4_15_0" index="0" speed="9.26" length="5.01" shape="189.60,798.40 194.56,799.11"/>
    </edge>
    <edge id=":B4_19" function="internal">
        <lane id=":B4_19_0" index="0" speed="9.26" length="14.34" shape="194.56,799.11 194.85,799.15 198.60,801.40 200.85,805.15 201.60,810.40"/>
    </edge>
    <edge id=":B5_0" function="internal">
        <lane id=":B5_0_0" index="0" speed="13.89" length="20.80" shape="210.40,1004.80 189.60,1004.80"/>
        <lane id=":B5_0_1" index="1" speed="13.89" length="20.80" shape="210.40,1001.60 189.60,1001.60"/>
    </edge>
    <edge id=":B5_2" function="internal">
        <lane id=":B5_2_0" index="0" speed="9.26" length="5.01" shape="210.40,1001.60 205.44,1000.89"/>
    </edge>
    <edge id=":B5_9" function="internal">
        <lane id=":B5_9_0" index="0" speed="9.26" length="14.34" shape="205.44,1000.89 205.15,1000.85 201.40,998.60 199.15,994.85 198.40,989.60"/>
    </edge>
    <edge id=":B5_3" function="internal">
        <lane id=":B5_3_0" index="0" speed="6.51" length="9.03" shape="204.80,989.60 205.15,992.05 206.20,993.80 207.95,994.85 210.40,995.20"/>
        <lane id=":B5_3_1" index="1" speed="8.00" length="14.19" shape="201.60,989.60 202.15,993.45 203.80,996.20 206.55,997.85 210.40,998.40"/>
    </edge>
    <edge id=":B5_5" function="internal">
        <lane id=":B5_5_0" index="0" speed="9.26" length="19.35" shape="201.60,989.60 200.85,994.85 198.60,998.60 194.85,1000.85 189.60,1001.60"/>
    </edge>
    <edge id=":B5_6" function="internal">
        <lane id=":B5_6_0" index="0" speed="6.51" length="9.03" shape="189.60,995.20 192.05,994.85 193.80,993.80 194.85,992.05 195.20,989.60"/>
    </edge>
    <edge id=":B5_7" function="internal">
        <lane id=":B5_7_0" index="0" speed="13.89" length="20.80" shape="189.60,995.20 210.40,995.20"/>
        <lane id=":B5_7_1" index="1" speed="13.89" length="20.80" shape="189.60,998.40 210.40,998.40"/>
    </edge>
    <edge id=":C0_0" function="internal">
        <lane id=":C0_0_0" index="0" speed="6.51" length="9.03" shape="395.20,10.40 394.85,7.95 393.80,6.20 392.05,5.15 389.60,4.80"/>
        <lane id=":C0_0_1" index="1" speed="8.00" length="14.19" shape="398.40,10.40 397.85,6.55 396.20,3.80 393.45,2.15 389.60,1.60"/>
    </edge>
    <edge id=":C0_2" function="internal">
        <lane id=":C0_2_0" index="0" speed="9.26" length="19.35" shape="398.40,10.40 399.15,5.15 401.40,1.40 405.15,-0.85 410.40,-1.60"/>
    </edge>
    <edge id=":C0_3" function="internal">
        <lane id=":C0_3_0" index="0" speed="6.51" length="9.03" shape="410.40,4.80 407.95,5.15 406.20,6.20 405.15,7.95 404.80,10.40"/>
    </edge>
    <edge id=":C0_4" function="internal">
        <lane id=":C0_4_0" index="0" speed="13.89" length="20.80" shape="410.40,4.80 389.60,4.80"/>
        <lane id=":C0_4_1" index="1" speed="13.89" length="20.80" shape="410.40,1.60 389.60,1.60"/>
    </edge>
    <edge id=":C0_6" function="internal">
        <lane id=":C0_6_0" index="0" speed="13.89" length="20.80" shape="389.60,-4.80 410.40,-4.80"/>
        <lane id=":C0_6_1" index="1" speed="13.89" length="20.80" shape="389.60,-1.60 410.40,-1.60"/>
    </edge>
    <edge id=":C0_8" function="internal">
        <lane id=":C0_8_0" index="0" speed="9.26" length="5.01" shape="389.60,-1.60 394.56,-0.89"/>
    </edge>
    <edge id=":C0_9" function="internal">
        <lane id=":C0_9_0" index="0" speed="9.26" length="14.34" shape="394.56,-0.89 394.85,-0.85 398.60,1.40 400.85,5.15 401.60,10.40"/>
    </edge>
    <edge id=":C1_0" function="internal">
        <lane id=":C1_0_0" index="0" speed="6.51" length="9.03" shape="395.20,210.40 394.85,207.95 393.80,206.20 392.05,205.15 389.60,204.80"/>
    </edge>
    <edge id=":C1_1" function="internal">
        <lane id=":C1_1_0" index="0" speed="13.89" length="20.80" shape="395.20,210.40 395.20,189.60"/>
        <lane id=":C1_1_1" index="1" speed="13.89" length="20.80" shape="398.40,210.40 398.40,189.60"/>
    </edge>
    <edge id=":C1_3" function="internal">
        <lane id=":C1_3_0" index="0" speed="9.26" length="5.01" shape="398.40,210.40 399.11,205.44"/>
    </edge>
    <edge id=":C1_16" function="internal">
        <lane id=":C1_16_0" index="0" speed="9.26" length="14.34" shape="399.11,205.44 399.15,205.15 401.40,201.40 405.15,199.15 410.40,198.40"/>
    </edge>
    <edge id=":C1_4" function="internal">
        <lane id=":C1_4_0" index="0" speed="6.51" length="9.03" shape="410.40,204.80 407.95,205.15 406.20,206.20 405.15,207.95 404.80,210.40"/>
    </edge>
    <edge id=":C1_5" function="internal">
        <lane id=":C1_5_0" index="0" speed="13.89" length="20.80" shape="410.40,204.80 389.60,204.80"/>
        <lane id=":C1_5_1" index="1" speed="13.89" length="20.80" shape="410.40,201.60 389.60,201.60"/>
    </edge>
    <edge id=":C1_7" function="internal">
        <lane id=":C1_7_0" index="0" speed="9.26" length="5.01" shape="410.40,201.60 405.44,200.89"/>
    </edge>
    <edge id=":C1_17" function="internal">
        <lane id=":C1_17_0" index="0" speed="9.26" length="14.34" shape="405.44,200.89 405.15,200.85 401.40,198.60 399.15,194.85 398.40,189.60"/>
    </edge>
    <edge id=":C1_8" function="internal">
        <lane id=":C1_8_0" index="0" speed="6.51" length="9.03" shape="404.80,189.60 405.15,192.05 406.20,193.80 407.95,194.85 410.40,195.20"/>
    </edge>
    <edge id=":C1_9" function="internal">
        <lane id=":C1_9_0" index="0" speed="13.89" length="20.80" shape="404.80,189.60 404.80,210.40"/>
        <lane id=":C1_9_1" index="1" speed="13.89" length="20.80" shape="401.60,189.60 401.60,210.40"/>
    </edge>
    <edge id=":C1_11" function="internal">
        <lane id=":C1_11_0" index="0" speed="9.26" length="5.01" shape="401.60,189.60 400.89,194.56"/>
    </edge>
    <edge id=":C1_18" function="internal">
        <lane id=":C1_18_0" index="0" speed="9.26" length="14.34" shape="400.89,194.56 400.85,194.85 398.60,198.60 394.85,200.85 389.60,201.60"/>
    </edge>
    <edge id=":C1_12" function="internal">
        <lane id=":C1_12_0" index="0" speed="6.51" length="9.03" shape="389.60,195.20 392.05,194.85 393.80,193.80 394.85,192.05 395.20,189.60"/>
    </edge>
    <edge id=":C1_13" function="internal">
        <lane id=":C1_13_0" index="0" speed="13.89" length="20.80" shape="389.60,195.20 410.40,195.20"/>
        <lane id=":C1_13_1" index="1" speed="13.89" length="20.80" shape="389.60,198.40 410.40,198.40"/>
    </edge>
    <edge id=":C1_15" function="internal">
        <lane id=":C1_15_0" index="0" speed="9.26" length="5.01" shape="389.60,198.40 394.56,199.11"/>
    </edge>
    <edge id=":C1_19" function="internal">