<?xml version="1.0" encoding="UTF-8"?>

<!-- generated on 2026-04-23T18:14:24.669387+05:30 by Eclipse SUMO netconvert 1.26.0
<netconvertConfiguration xmlns:xsi="http://www.w3.org/2001/XMLSchema-instance" xsi:noNamespaceSchemaLocation="http://sumo.dlr.de/xsd/netconvertConfiguration.xsd">

    <input>
        <node-files value="scenario/nodes.nod.xml"/>
        <edge-files value="scenario/edges.edg.xml"/>
    </input>

    <output>
        <output-file value="scenario/network.net.xml"/>
    </output>

</netconvertConfiguration>
-->

<net version="1.20" junctionCornerDetail="5" limitTurnSpeed="5.50" xmlns:xsi="http://www.w3.org/2001/XMLSchema-instance" xsi:noNamespaceSchemaLocation="http://sumo.dlr.de/xsd/net_file.xsd">

    <location netOffset="0.00,120.00" convBoundary="0.00,0.00,600.00,240.00" origBoundary="0.00,-120.00,600.00,120.00" projParameter="!"/>

    <edge id=":e0_0" function="internal">
        <lane id=":e0_0_0" index="0" speed="3.65" length="4.67" shape="600.00,118.40 601.20,119.20 601.60,120.00 601.20,120.80 600.00,121.60"/>
    </edge>
    <edge id=":j1_0" function="internal">
        <lane id=":j1_0_0" index="0" speed="6.51" length="9.03" shape="118.40,130.40 118.05,127.95 117.00,126.20 115.25,125.15 112.80,124.80"/>
    </edge>
    <edge id=":j1_1" function="internal">
        <lane id=":j1_1_0" index="0" speed="13.90" length="20.80" shape="118.40,130.40 118.40,109.60"/>
    </edge>
    <edge id=":j1_2" function="internal">
        <lane id=":j1_2_0" index="0" speed="8.67" length="5.56" shape="118.40,130.40 118.95,125.15 119.06,124.89"/>
    </edge>
    <edge id=":j1_3" function="internal">
        <lane id=":j1_3_0" index="0" speed="3.65" length="1.44" shape="118.40,130.40 119.20,129.20"/>
    </edge>
    <edge id=":j1_18" function="internal">
        <lane id=":j1_18_0" index="0" speed="8.67" length="11.29" shape="119.06,124.89 120.60,121.40 123.35,119.15 127.20,118.40"/>
    </edge>
    <edge id=":j1_19" function="internal">
        <lane id=":j1_19_0" index="0" speed="3.65" length="3.23" shape="119.20,129.20 120.00,128.80 120.80,129.20 121.60,130.40"/>
    </edge>
    <edge id=":j1_4" function="internal">
        <lane id=":j1_4_0" index="0" speed="6.51" length="9.03" shape="127.20,124.80 124.75,125.15 123.00,126.20 121.95,127.95 121.60,130.40"/>
    </edge>
    <edge id=":j1_5" function="internal">
        <lane id=":j1_5_0" index="0" speed="16.70" length="14.40" shape="127.20,124.80 112.80,124.80"/>
        <lane id=":j1_5_1" index="1" speed="16.70" length="14.40" shape="127.20,121.60 112.80,121.60"/>
    </edge>
    <edge id=":j1_7" function="internal">
        <lane id=":j1_7_0" index="0" speed="8.67" length="3.71" shape="127.20,121.60 123.56,120.89"/>
    </edge>
    <edge id=":j1_8" function="internal">
        <lane id=":j1_8_0" index="0" speed="3.65" length="1.44" shape="127.20,121.60 126.00,120.80"/>
    </edge>
    <edge id=":j1_20" function="internal">
        <lane id=":j1_20_0" index="0" speed="8.67" length="13.14" shape="123.56,120.89 123.35,120.85 120.60,118.60 118.95,114.85 118.40,109.60"/>
    </edge>
    <edge id=":j1_21" function="internal">
        <lane id=":j1_21_0" index="0" speed="3.65" length="3.23" shape="126.00,120.80 125.60,120.00 126.00,119.20 127.20,118.40"/>
    </edge>
    <edge id=":j1_9" function="internal">
        <lane id=":j1_9_0" index="0" speed="6.51" length="9.03" shape="121.60,109.60 121.95,112.05 123.00,113.80 124.75,114.85 127.20,115.20"/>
    </edge>
    <edge id=":j1_10" function="internal">
        <lane id=":j1_10_0" index="0" speed="13.90" length="20.80" shape="121.60,109.60 121.60,130.40"/>
    </edge>
    <edge id=":j1_11" function="internal">
        <lane id=":j1_11_0" index="0" speed="8.67" length="5.56" shape="121.60,109.60 121.05,114.85 120.94,115.11"/>
    </edge>
    <edge id=":j1_12" function="internal">
        <lane id=":j1_12_0" index="0" speed="3.65" length="1.44" shape="121.60,109.60 120.80,110.80"/>
    </edge>
    <edge id=":j1_22" function="internal">
        <lane id=":j1_22_0" index="0" speed="8.67" length="11.29" shape="120.94,115.11 119.40,118.60 116.65,120.85 112.80,121.60"/>
    </edge>
    <edge id=":j1_23" function="internal">
        <lane id=":j1_23_0" index="0" speed="3.65" length="3.23" shape="120.80,110.80 120.00,111.20 119.20,110.80 118.40,109.60"/>
    </edge>
    <edge id=":j1_13" function="internal">
        <lane id=":j1_13_0" index="0" speed="6.51" length="9.03" shape="112.80,115.20 115.25,114.85 117.00,113.80 118.05,112.05 118.40,109.60"/>
    </edge>
    <edge id=":j1_14" function="internal">
        <lane id=":j1_14_0" index="0" speed="16.70" length="14.40" shape="112.80,115.20 127.20,115.20"/>
        <lane id=":j1_14_1" index="1" speed="16.70" length="14.40" shape="112.80,118.40 127.20,118.40"/>
    </edge>
    <edge id=":j1_16" function="internal">
        <lane id=":j1_16_0" index="0" speed="8.67" length="3.71" shape="112.80,118.40 116.44,119.11"/>
    </edge>
    <edge id=":j1_17" function="internal">
        <lane id=":j1_17_0" index="0" speed="3.65" length="1.44" shape="112.80,118.40 114.00,119.20"/>
    </edge>
    <edge id=":j1_24" function="internal">
        <lane id=":j1_24_0" index="0" speed="8.67" length="13.14" shape="116.44,119.11 116.65,119.15 119.40,121.40 121.05,125.15 121.60,130.40"/>
    </edge>
    <edge id=":j1_25" function="internal">
        <lane id=":j1_25_0" index="0" speed="3.65" length="3.23" shape="114.00,119.20 114.40,120.00 114.00,120.80 112.80,121.60"/>
    </edge>
    <edge id=":j1_n_0" function="internal">
        <lane id=":j1_n_0_0" index="0" speed="3.65" length="4.67" shape="121.60,240.00 120.80,241.20 120.00,241.60 119.20,241.20 118.40,240.00"/>
    </edge>
    <edge id=":j1_s_0" function="internal">
        <lane id=":j1_s_0_0" index="0" speed="3.65" length="4.67" shape="118.40,0.00 119.20,-1.20 120.00,-1.60 120.80,-1.20 121.60,0.00"/>
    </edge>
    <edge id=":j2_0" function="internal">
        <lane id=":j2_0_0" index="0" speed="6.51" length="9.03" shape="238.40,130.40 238.05,127.95 237.00,126.20 235.25,125.15 232.80,124.80"/>
    </edge>
    <edge id=":j2_1" function="internal">
        <lane id=":j2_1_0" index="0" speed="13.90" length="20.80" shape="238.40,130.40 238.40,109.60"/>
    </edge>
    <edge id=":j2_2" function="internal">
        <lane id=":j2_2_0" index="0" speed="8.67" length="5.56" shape="238.40,130.40 238.95,125.15 239.06,124.89"/>
    </edge>
    <edge id=":j2_3" function="internal">
        <lane id=":j2_3_0" index="0" speed="3.65" length="1.44" shape="238.40,130.40 239.20,129.20"/>
    </edge>
    <edge id=":j2_18" function="internal">
        <lane id=":j2_18_0" index="0" speed="8.67" length="11.29" shape="239.06,124.89 240.60,121.40 243.35,119.15 247.20,118.40"/>
    </edge>
    <edge id=":j2_19" function="internal">
        <lane id=":j2_19_0" index="0" speed="3.65" length="3.23" shape="239.20,129.20 240.00,128.80 240.80,129.20 241.60,130.40"/>
    </edge>
    <edge id=":j2_4" function="internal">
        <lane id=":j2_4_0" index="0" speed="6.51" length="9.03" shape="247.20,124.80 244.75,125.15 243.00,126.20 241.95,127.95 241.60,130.40"/>
    </edge>
    <edge id=":j2_5" function="internal">
        <lane id=":j2_5_0" index="0" speed="16.70" length="14.40" shape="247.20,124.80 232.80,124.80"/>
        <lane id=":j2_5_1" index="1" speed="16.70" length="14.40" shape="247.20,121.60 232.80,121.60"/>
    </edge>
    <edge id=":j2_7" function="internal">
        <lane id=":j2_7_0" index="0" speed="8.67" length="3.71" shape="247.20,121.60 243.56,120.89"/>
    </edge>
    <edge id=":j2_8" function="internal">
        <lane id=":j2_8_0" index="0" speed="3.65" length="1.44" shape="247.20,121.60 246.00,120.80"/>
    </edge>
    <edge id=":j2_20" function="internal">
        <lane id=":j2_20_0" index="0" speed="8.67" length="13.14" shape="243.56,120.89 243.35,120.85 240.60,118.60 238.95,114.85 238.40,109.60"/>
    </edge>
    <edge id=":j2_21" function="internal">
        <lane id=":j2_21_0" index="0" speed="3.65" length="3.23" shape="246.00,120.80 245.60,120.00 246.00,119.20 247.20,118.40"/>
    </edge>
    <edge id=":j2_9" function="internal">
        <lane id=":j2_9_0" index="0" speed="6.51" length="9.03" shape="241.60,109.60 241.95,112.05 243.00,113.80 244.75,114.85 247.20,115.20"/>
    </edge>
    <edge id=":j2_10" function="internal">
        <lane id=":j2_10_0" index="0" speed="13.90" length="20.80" shape="241.60,109.60 241.60,130.40"/>
    </edge>
    <edge id=":j2_11" function="internal">
        <lane id=":j2_11_0" index="0" speed="8.67" length="5.56" shape="241.60,109.60 241.05,114.85 240.94,115.11"/>
    </edge>
    <edge id=":j2_12" function="internal">
        <lane id=":j2_12_0" index="0" speed="3.65" length="1.44" shape="241.60,109.60 240.80,110.80"/>
    </edge>
    <edge id=":j2_22" function="internal">
        <lane id=":j2_22_0" index="0" speed="8.67" length="11.29" shape="240.94,115.11 239.40,118.60 236.65,120.85 232.80,121.60"/>
    </edge>
    <edge id=":j2_23" function="internal">
        <lane id=":j2_23_0" index="0" speed="3.65" length="3.23" shape="240.80,110.80 240.00,111.20 239.20,110.80 238.40,109.60"/>
    </edge>
    <edge id=":j2_13" function="internal">
        <lane id=":j2_13_0" index="0" speed="6.51" length="9.03" shape="232.80,115.20 235.25,114.85 237.00,113.80 238.05,112.05 238.40,109.60"/>
    </edge>
    <edge id=":j2_14" function="internal">
        <lane id=":j2_14_0" index="0" speed="16.70" length="14.40" shape="232.80,115.20 247.20,115.20"/>
        <lane id=":j2_14_1" index="1" speed="16.70" length="14.40" shape="232.80,118.40 247.20,118.40"/>
    </edge>
    <edge id=":j2_16" function="internal">
        <lane id=":j2_16_0" index="0" speed="8.67" length="3.71" shape="232.80,118.40 236.44,119.11"/>
    </edge>
    <edge id=":j2_17" function="internal">
        <lane id=":j2_17_0" index="0" speed="3.65" length="1.44" shape="232.80,118.40 234.00,119.20"/>
    </edge>
    <edge id=":j2_24" function="internal">
        <lane id=":j2_24_0" index="0" speed="8.67" length="13.14" shape="236.44,119.11 236.65,119.15 239.40,121.40 241.05,125.15 241.60,130.40"/>
    </edge>
    <edge id=":j2_25" function="internal">
        <lane id=":j2_25_0" index="0" speed="3.65" length="3.23" shape="234.00,119.20 234.40,120.00 234.00,120.80 232.80,121.60"/>
    </edge>
    <edge id=":j2_n_0" function="internal">
        <lane id=":j2_n_0_0" index="0" speed="3.65" length="4.67" shape="241.60,240.00 240.80,241.20 240.00,241.60 239.20,241.20 238.40,240.00"/>
    </edge>
    <edge id=":j2_s_0" function="internal">
        <lane id=":j2_s_0_0" index="0" speed="3.65" length="4.67" shape="238.40,0.00 239.20,-1.20 240.00,-1.60 240.80,-1.20 241.60,0.00"/>
    </edge>
    <edge id=":j3_0" function="internal">
        <lane id=":j3_0_0" index="0" speed="6.51" length="9.03" shape="358.40,130.40 358.05,127.95 357.00,126.20 355.25,125.15 352.80,124.80"/>
    </edge>
    <edge id=":j3_1" function="internal">
        <lane id=":j3_1_0" index="0" speed="13.90" length="20.80" shape="358.40,130.40 358.40,109.60"/>
    </edge>
    <edge id=":j3_2" function="internal">
        <lane id=":j3_2_0" index="0" speed="8.67" length="5.56" shape="358.40,130.40 358.95,125.15 359.06,124.89"/>
    </edge>
    <edge id=":j3_3" function="internal">
        <lane id=":j3_3_0" index="0" speed="3.65" length="1.44" shape="358.40,130.40 359.20,129.20"/>
    </edge>
    <edge id=":j3_18" function="internal">
        <lane id=":j3_18_0" index="0" speed="8.67" length="11.29" shape="359.06,124.89 360.60,121.40 363.35,119.15 367.20,118.40"/>
    </edge>
    <edge id=":j3_19" function="internal">
        <lane id=":j3_19_0" index="0" speed="3.65" length="3.23" shape="359.20,129.20 360.00,128.80 360.80,129.20 361.60,130.40"/>
    </edge>
    <edge id=":j3_4" function="internal">
        <lane id=":j3_4_0" index="0" speed="6.51" length="9.03" shape="367.20,124.80 364.75,125.15 363.00,126.20 361.95,127.95 361.60,130.40"/>
    </edge>
    <edge id=":j3_5" function="internal">
        <lane id=":j3_5_0" index="0" speed="16.70" length="14.40" shape="367.20,124.80 352.80,124.80"/>
        <lane id=":j3_5_1" index="1" speed="16.70" length="14.40" shape="367.20,121.60 352.80,121.60"/>
    </edge>
    <edge id=":j3_7" function="internal">
        <lane id=":j3_7_0" index="0" speed="8.67" length="3.71" shape="367.20,121.60 363.56,120.89"/>
    </edge>
    <edge id=":j3_8" function="internal">
        <lane id=":j3_8_0" index="0" speed="3.65" length="1.44" shape="367.20,121.60 366.00,120.80"/>
    </edge>
    <edge id=":j3_20" function="internal">
        <lane id=":j3_20_0" index="0" speed="8.67" length="13.14" shape="363.56,120.89 363.35,120.85 360.60,118.60 358.95,114.85 358.40,109.60"/>
    </edge>
    <edge id=":j3_21" function="internal">
        <lane id=":j3_21_0" index="0" speed="3.65" length="3.23" shape="366.00,120.80 365.60,120.00 366.00,119.20 367.20,118.40"/>
    </edge>
    <edge id=":j3_9" function="internal">
        <lane id=":j3_9_0" index="0" speed="6.51" length="9.03" shape="361.60,109.60 361.95,112.05 363.00,113.80 364.75,114.85 367.20,115.20"/>
    </edge>
    <edge id=":j3_10" function="internal">
        <lane id=":j3_10_0" index="0" speed="13.90" length="20.80" shape="361.60,109.60 361.60,130.40"/>
    </edge>
    <edge id=":j3_11" function="internal">
        <lane id=":j3_11_0" index="0" speed="8.67" length="5.56" shape="361.60,109.60 361.05,114.85 360.94,115.11"/>
    </edge>
    <edge id=":j3_12" function="internal">
        <lane id=":j3_12_0" index="0" speed="3.65" length="1.44" shape="361.60,109.60 360.80,110.80"/>
    </edge>
    <edge id=":j3_22" function="internal">
        <lane id=":j3_22_0" index="0" speed="8.67" length="11.29" shape="360.94,115.11 359.40,118.60 356.65,120.85 352.80,121.60"/>
    </edge>
    <edge id=":j3_23" function="internal">
        <lane id=":j3_23_0" index="0" speed="3.65" length="3.23" shape="360.80,110.80 360.00,111.20 359.20,110.80 358.40,109.60"/>
    </edge>
    <edge id=":j3_13" function="internal">
        <lane id=":j3_13_0" index="0" speed="6.51" length="9.03" shape="352.80,115.20 355.25,114.85 357.00,113.80 358.05,112.05 358.40,109.60"/>
    </edge>
    <edge id=":j3_14" function="internal">
        <lane id=":j3_14_0" index="0" speed="16.70" length="14.40" shape="352.80,115.20 367.20,115.20"/>
        <lane id=":j3_14_1" index="1" speed="16.70" length="14.40" shape="352.80,118.40 367.20,118.40"/>
    </edge>
    <edge id=":j3_16" function="internal">
        <lane id=":j3_16_0" index="0" speed="8.67" length="3.71" shape="352.80,118.40 356.44,119.11"/>
    </edge>
    <edge id=":j3_17" function="internal">
        <lane id=":j3_17_0" index="0" speed="3.65" length="1.44" shape="352.80,118.40 354.00,119.20"/>
    </edge>
    <edge id=":j3_24" function="internal">
        <lane id=":j3_24_0" index="0" speed="8.67" length="13.14" shape="356.44,119.11 356.65,119.15 359.40,121.40 361.05,125.15 361.60,130.40"/>
    </edge>
    <edge id=":j3_25" function="internal">
        <lane id=":j3_25_0" index="0" speed="3.65" length="3.23" shape="354.00,119.20 354.40,120.00 354.00,120.80 352.80,121.60"/>
    </edge>
    <edge id=":j3_n_0" function="internal">
        <lane id=":j3_n_0_0" index="0" speed="3.65" length="4.67" shape="361.60,240.00 360.80,241.20 360.00,241.60 359.20,241.20 358.40,240.00"/>
    </edge>
    <edge id=":j3_s_0" function="internal">
        <lane id=":j3_s_0_0" index="0" speed="3.65" length="4.67" shape="358.40,0.00 359.20,-1.20 360.00,-1.60 360.80,-1.20 361.60,0.00"/>
    </edge>
    <edge id=":j4_0" function="internal">
        <lane id=":j4_0_0" index="0" speed="6.51" length="9.03" shape="478.40,130.40 478.05,127.95 477.00,126.20 475.25,125.15 472.80,124.80"/>
    </edge>
    <edge id=":j4_1" function="internal">
        <lane id=":j4_1_0" index="0" speed="13.90" length="20.80" shape="478.40,130.40 478.40,109.60"/>
    </edge>
    <edge id=":j4_2" function="internal">
        <lane id=":j4_2_0" index="0" speed="8.67" length="5.56" shape="478.40,130.40 478.95,125.15 479.06,124.89"/>
    </edge>
    <edge id=":j4_3" function="internal">
        <lane id=":j4_3_0" index="0" speed="3.65" length="1.44" shape="478.40,130.40 479.20,129.20"/>
    </edge>
    <edge id=":j4_18" function="internal">
        <lane id=":j4_18_0" index="0" speed="8.67" length="11.29" shape="479.06,124.89 480.60,121.40 483.35,119.15 487.20,118.40"/>
    </edge>
    <edge id=":j4_19" function="internal">
        <lane id=":j4_19_0" index="0" speed="3.65" length="3.23" shape="479.20,129.20 480.00,128.80 480.80,129.20 481.60,130.40"/>
    </edge>
    <edge id=":j4_4" function="internal">
        <lane id=":j4_4_0" index="0" speed="6.51" length="9.03" shape="487.20,124.80 484.75,125.15 483.00,126.20 481.95,127.95 481.60,130.40"/>
    </edge>
    <edge id=":j4_5" function="internal">
        <lane id=":j4_5_0" index="0" speed="16.70" length="14.40" shape="487.20,124.80 472.80,124.80"/>
        <lane id=":j4_5_1" index="1" speed="16.70" length="14.40" shape="487.20,121.60 472.80,121.60"/>
    </edge>
    <edge id=":j4_7" function="internal">
        <lane id=":j4_7_0" index="0" speed="8.67" length="3.71" shape="487.20,121.60 483.56,120.89"/>
    </edge>
    <edge id=":j4_8" function="internal">
        <lane id=":j4_8_0" index="0" speed="3.65" length="1.44" shape="487.20,121.60 486.00,120.80"/>
    </edge>
    <edge id=":j4_20" function="internal">
        <lane id=":j4_20_0" index="0" speed="8.67" length="13.14" shape="483.56,120.89 483.35,120.85 480.60,118.60 478.95,114.85 478.40,109.60"/>
    </edge>
    <edge id=":j4_21" function="internal">
        <lane id=":j4_21_0" index="0" speed="3.65" length="3.23" shape="486.00,120.80 485.60,120.00 486.00,119.20 487.20,118.40"/>
    </edge>
    <edge id=":j4_9" function="internal">
        <lane id=":j4_9_0" index="0" speed="6.51" length="9.03" shape="481.60,109.60 481.95,112.05 483.00,113.80 484.75,114.85 487.20,115.20"/>
    </edge>
    <edge id=":j4_10" function="internal">
        <lane id=":j4_10_0" index="0" speed="13.90" length="20.80" shape="481.60,109.60 481.60,130.40"/>
    </edge>
    <edge id=":j4_11" function="internal">
        <lane id=":j4_11_0" index="0" speed="8.67" length="5.56" shape="481.60,109.60 481.05,114.85 480.94,115.11"/>
    </edge>
    <edge id=":j4_12" function="internal">
        <lane id=":j4_12_0" index="0" speed="3.65" length="1.44" shape="481.60,109.60 480.80,110.80"/>
    </edge>
    <edge id=":j4_22" function="internal">
        <lane id=":j4_22_0" index="0" speed="8.67" length="11.29" shape="480.94,115.11 479.40,118.60 476.65,120.85 472.80,121.60"/>
    </edge>
    <edge id=":j4_23" function="internal">
        <lane id=":j4_23_0" index="0" speed="3.65" length="3.23" shape="480.80,110.80 480.00,111.20 479.20,110.80 478.40,109.60"/>
    </edge>
    <edge id=":j4_13" function="internal">
        <lane id=":j4_13_0" index="0" speed="6.51" length="9.03" shape="472.80,115.20 475.25,114.85 477.00,113.80 478.05,112.05 478.40,109.60"/>
    </edge>
    <edge id=":j4_14" function="internal">
        <lane id=":j4_14_0" index="0" speed="16.70" length="14.40" shape="472.80,115.20 487.20,115.20"/>
        <lane id=":j4_14_1" index="1" speed="16.70" length="14.40" shape="472.80,118.40 487.20,118.40"/>
    </edge>
    <edge id=":j4_16" function="internal">
        <lane id=":j4_16_0" index="0" speed="8.67" length="3.71" shape="472.80,118.40 476.44,119.11"/>
    </edge>
    <edge id=":j4_17" function="internal">
        <lane id=":j4_17_0" index="0" speed="3.65" length="1.44" shape="472.80,118.40 474.00,119.20"/>
    </edge>
    <edge id=":j4_24" function="internal">
        <lane id=":j4_24_0" index="0" speed="8.67" length="13.14" shape="476.44,119.11 476.65,119.15 479.40,121.40 481.05,125.15 481.60,130.40"/>
    </edge>
    <edge id=":j4_25" function="internal">
        <lane id=":j4_25_0" index="0" speed="3.65" length="3.23" shape="474.00,119.20 474.40,120.00 474.00,120.80 472.80,121.60"/>
    </edge>
    <edge id=":j4_n_0" function="internal">
        <lane id=":j4_n_0_0" index="0" speed="3.65" length="4.67" shape="481.60,240.00 480.80,241.20 480.00,241.60 479.20,241.20 478.40,240.00"/>
    </edge>
    <edge id=":j4_s_0" function="internal">
        <lane id=":j4_s_0_0" index="0" speed="3.65" length="4.67" shape="478.40,0.00 479.20,-1.20 480.00,-1.60 480.80,-1.20 481.60,0.00"/>
    </edge>
    <edge id=":w0_0" function="internal">
        <lane id=":w0_0_0" index="0" speed="3.65" length="4.67" shape="0.00,121.60 -1.20,120.80 -1.60,120.00 -1.20,119.20 0.00,118.40"/>
    </edge>

    <edge id="h_0_1" from="w0" to="j1" priority="2">
        <lane id="h_0_1_0" index="0" speed="16.70" length="112.80" shape="0.00,115.20 112.80,115.20"/>
        <lane id="h_0_1_1" index="1" speed="16.70" length="112.80" shape="0.00,118.40 112.80,118.40"/>
    </edge>
    <edge id="h_1_0" from="j1" to="w0" priority="2">
        <lane id="h_1_0_0" index="0" speed="16.70" length="112.80" shape="112.80,124.80 0.00,124.80"/>
        <lane id="h_1_0_1" index="1" speed="16.70" length="112.80" shape="112.80,121.60 0.00,121.60"/>
    </edge>
    <edge id="h_1_2" from="j1" to="j2" priority="2">
        <lane id="h_1_2_0" index="0" speed="16.70" length="105.60" shape="127.20,115.20 232.80,115.20"/>
        <lane id="h_1_2_1" index="1" speed="16.70" length="105.60" shape="127.20,118.40 232.80,118.40"/>
    </edge>
    <edge id="h_2_1" from="j2" to="j1" priority="2">
        <lane id="h_2_1_0" index="0" speed="16.70" length="105.60" shape="232.80,124.80 127.20,124.80"/>
        <lane id="h_2_1_1" index="1" speed="16.70" length="105.60" shape="232.80,121.60 127.20,121.60"/>
    </edge>
    <edge id="h_2_3" from="j2" to="j3" priority="2">
        <lane id="h_2_3_0" index="0" speed="16.70" length="105.60" shape="247.20,115.20 352.80,115.20"/>
        <lane id="h_2_3_1" index="1" speed="16.70" length="105.60" shape="247.20,118.40 352.80,118.40"/>
    </edge>
    <edge id="h_3_2" from="j3" to="j2" priority="2">
        <lane id="h_3_2_0" index="0" speed="16.70" length="105.60" shape="352.80,124.80 247.20,124.80"/>
        <lane id="h_3_2_1" index="1" speed="16.70" length="105.60" shape="352.80,121.60 247.20,121.60"/>
    </edge>
    <edge id="h_3_4" from="j3" to="j4" priority="2">
        <lane id="h_3_4_0" index="0" speed="16.70" length="105.60" shape="367.20,115.20 472.80,115.20"/>
        <lane id="h_3_4_1" index="1" speed="16.70" length="105.60" shape="367.20,118.40 472.80,118.40"/>
    </edge>
    <edge id="h_4_3" from="j4" to="j3" priority="2">
        <lane id="h_4_3_0" index="0" speed="16.70" length="105.60" shape="472.80,124.80 367.20,124.80"/>
        <lane id="h_4_3_1" index="1" speed="16.70" length="105.60" shape="472.80,121.60 367.20,121.60"/>
    </edge>
    <edge id="h_4_5" from="j4" to="e0" priority="2">
        <lane id="h_4_5_0" index="0" speed="16.70" length="112.80" shape="487.20,115.20 600.00,115.20"/>
        <lane id="h_4_5_1" index="1" speed="16.70" length="112.80" shape="487.20,118.40 600.00,118.40"/>
    </edge>
    <edge id="h_5_4" from="e0" to="j4" priority="2">
        <lane id="h_5_4_0" index="0" speed="16.70" length="112.80" shape="600.00,124.80 487.20,124.80"/>
        <lane id="h_5_4_1" index="1" speed="16.70" length="112.80" shape="600.00,121.60 487.20,121.60"/>
    </edge>
    <edge id="v_1_n_s" from="j1_n" to="j1" priority="1">
        <lane id="v_1_n_s_0" index="0" speed="13.90" length="109.60" shape="118.40,240.00 118.40,130.40"/>
    </edge>
    <edge id="v_1_s_n" from="j1_s" to="j1" priority="1">
        <lane id="v_1_s_n_0" index="0" speed="13.90" length="109.60" shape="121.60,0.00 121.60,109.60"/>
    </edge>
    <edge id="v_1_to_n" from="j1" to="j1_n" priority="1">
        <lane id="v_1_to_n_0" index="0" speed="13.90" length="109.60" shape="121.60,130.40 121.60,240.00"/>
    </edge>
    <edge id="v_1_to_s" from="j1" to="j1_s" priority="1">
        <lane id="v_1_to_s_0" index="0" speed="13.90" length="109.60" shape="118.40,109.60 118.40,0.00"/>
    </edge>
    <edge id="v_2_n_s" from="j2_n" to="j2" priority="1">
        <lane id="v_2_n_s_0" index="0" speed="13.90" length="109.60" shape="238.40,240.00 238.40,130.40"/>
    </edge>
    <edge id="v_2_s_n" from="j2_s" to="j2" priority="1">
        <lane id="v_2_s_n_0" index="0" speed="13.90" length="109.60" shape="241.60,0.00 241.60,109.60"/>
    </edge>
    <edge id="v_2_to_n" from="j2" to="j2_n" priority="1">
        <lane id="v_2_to_n_0" index="0" speed="13.90" length="109.60" shape="241.60,130.40 241.60,240.00"/>
    </edge>
    <edge id="v_2_to_s" from="j2" to="j2_s" priority="1">
        <lane id="v_2_to_s_0" index="0" speed="13.90" length="109.60" shape="238.40,109.60 238.40,0.00"/>
    </edge>
    <edge id="v_3_n_s" from="j3_n" to="j3" priority="1">
        <lane id="v_3_n_s_0" index="0" speed="13.90" length="109.60" shape="358.40,240.00 358.40,130.40"/>
    </edge>
    <edge id="v_3_s_n" from="j3_s" to="j3" priority="1">
        <lane id="v_3_s_n_0" index="0" speed="13.90" length="109.60" shape="361.60,0.00 361.60,109.60"/>
    </edge>
    <edge id="v_3_to_n" from="j3" to="j3_n" priority="1">
        <lane id="v_3_to_n_0" index="0" speed="13.90" length="109.60" shape="361.60,130.40 361.60,240.00"/>
    </edge>
    <edge id="v_3_to_s" from="j3" to="j3_s" priority="1">
        <lane id="v_3_to_s_0" index="0" speed="13.90" length="109.60" shape="358.40,109.60 358.40,0.00"/>
    </edge>
    <edge id="v_4_n_s" from="j4_n" to="j4" priority="1">
        <lane id="v_4_n_s_0" index="0" speed="13.90" length="109.60" shape="478.40,240.00 478.40,130.40"/>
    </edge>
    <edge id="v_4_s_n" from="j4_s" to="j4" priority="1">
        <lane id="v_4_s_n_0" index="0" speed="13.90" length="109.60" shape="481.60,0.00 481.60,109.60"/>
    </edge>
    <edge id="v_4_to_n" from="j4" to="j4_n" priority="1">
        <lane id="v_4_to_n_0" index="0" speed="13.90" length="109.60" shape="481.60,130.40 481.60,240.00"/>
    </edge>
    <edge id="v_4_to_s" from="j4" to="j4_s" priority="1">
        <lane id="v_4_to_s_0" index="0" speed="13.90" length="109.60" shape="478.40,109.60 478.40,0.00"/>
    </edge>

    <tlLogic id="j1" type="static" programID="0" offset="0">
        <phase duration="41" state="rrrrGGGggrrrrGGGgg"/>
        <phase duration="4"  state="rrrryyyyyrrrryyyyy"/>
        <phase duration="41" state="GGggrrrrrGGggrrrrr"/>
        <phase duration="4"  state="yyyyrrrrryyyyrrrrr"/>
    </tlLogic>
    <tlLogic id="j2" type="static" programID="0" offset="0">
        <phase duration="41" state="rrrrGGGggrrrrGGGgg"/>
        <phase duration="4"  state="rrrryyyyyrrrryyyyy"/>
        <phase duration="41" state="GGggrrrrrGGggrrrrr"/>
        <phase duration="4"  state="yyyyrrrrryyyyrrrrr"/>
    </tlLogic>
    <tlLogic id="j3" type="static" programID="0" offset="0">
        <phase duration="41" state="rrrrGGGggrrrrGGGgg"/>
        <phase duration="4"  state="rrrryyyyyrrrryyyyy"/>
        <phase duration="41" state="GGggrrrrrGGggrrrrr"/>
        <phase duration="4"  state="yyyyrrrrryyyyrrrrr"/>
    </tlLogic>
    <tlLogic id="j4" type="static" programID="0" offset="0">
        <phase duration="41" state="rrrrGGGggrrrrGGGgg"/>
        <phase duration="4"  state="rrrryyyyyrrrryyyyy"/>
        <phase duration="41" state="GGggrrrrrGGggrrrrr"/>
        <phase duration="4"  state="yyyyrrrrryyyyrrrrr"/>
    </tlLogic>

    <junction id="e0" type="priority" x="600.00" y="120.00" incLanes="h_4_5_0 h_4_5_1" intLanes=":e0_0_0" shape="600.00,120.00 600.00,113.60 600.00,120.00">
        <request index="0" response="0" foes="0" cont="0"/>
    </junction>
    <junction id="j1" type="traffic_light" x="120.00" y="120.00" incLanes="v_1_n_s_0 h_2_1_0 h_2_1_1 v_1_s_n_0 h_0_1_0 h_0_1_1" intLanes=":j1_0_0 :j1_1_0 :j1_18_0 :j1_19_0 :j1_4_0 :j1_5_0 :j1_5_1 :j1_20_0 :j1_21_0 :j1_9_0 :j1_10_0 :j1_22_0 :j1_23_0 :j1_13_0 :j1_14_0 :j1_14_1 :j1_24_0 :j1_25_0" shape="116.80,130.40 123.20,130.40 123.64,128.18 124.20,127.40 124.98,126.84 125.98,126.51 127.20,126.40 127.20,113.60 124.98,113.16 124.20,112.60 123.64,111.82 123.31,110.82 123.20,109.60 116.80,109.60 116.36,111.82 115.80,112.60 115.02,113.16 114.02,113.49 112.80,113.60 112.80,126.40 115.02,126.84 115.80,127.40 116.36,128.18 116.69,129.18">
        <request index="0"  response="000000000001100000" foes="000000000001100000" cont="0"/>
        <request index="1"  response="011110000011100000" foes="011111100011100000" cont="0"/>
        <request index="2"  response="011100010011100000" foes="011100010111100000" cont="1"/>
        <request index="3"  response="010000010000010000" foes="010000010000010000" cont="1"/>
        <request index="4"  response="000000000000000000" foes="010000010000001000" cont="0"/>
        <request index="5"  response="000000000000000100" foes="110000110000000111" cont="0"/>
        <request index="6"  response="000000100000000100" foes="110000110000000111" cont="0"/>
        <request index="7"  response="001110100000000100" foes="001111110000000110" cont="1"/>
        <request index="8"  response="001100000000000100" foes="001100000000000100" cont="1"/>
        <request index="9"  response="001100000000000000" foes="001100000000000000" cont="0"/>
        <request index="10" response="011100000011110000" foes="011100000011111100" cont="0"/>
        <request index="11" response="011100000011100010" foes="111100000011100010" cont="1"/>
        <request index="12" response="000010000010000010" foes="000010000010000010" cont="1"/>
        <request index="13" response="000000000000000000" foes="000001000010000010" cont="0"/>
        <request index="14" response="000000100000000000" foes="000000111110000110" cont="0"/>
        <request index="15" response="000000100000000100" foes="000000111110000110" cont="0"/>
        <request index="16" response="000000100001110100" foes="000000110001111110" cont="1"/>
        <request index="17" response="000000100001100000" foes="000000100001100000" cont="1"/>